# generated using pymatgen
data_FeH10Au2(C9N4)2
_symmetry_space_group_name_H-M   'P 1'
_cell_length_a   43.10760000
_cell_length_b   14.63160000
_cell_length_c   32.32100000
_cell_angle_alpha   90.00000000
_cell_angle_beta   109.49000000
_cell_angle_gamma   90.00000000
_symmetry_Int_Tables_number   1
_chemical_formula_structural   FeH10Au2(C9N4)2
_chemical_formula_sum   'Fe24 H240 Au48 C432 N192'
_cell_volume   19217.80752178
_cell_formula_units_Z   24
loop_
 _symmetry_equiv_pos_site_id
 _symmetry_equiv_pos_as_xyz
  1  'x, y, z'
loop_
 _atom_site_type_symbol
 _atom_site_label
 _atom_site_symmetry_multiplicity
 _atom_site_fract_x
 _atom_site_fract_y
 _atom_site_fract_z
 _atom_site_occupancy
  Fe  Fe0  1  0.00111000  0.73091000  0.05090000  1.0
  Fe  Fe1  1  0.16455000  0.23131000  0.04874000  1.0
  Fe  Fe2  1  0.50111000  0.23091000  0.05090000  1.0
  Fe  Fe3  1  0.66455000  0.73131000  0.04874000  1.0
  Fe  Fe4  1  0.83276000  0.76914000  0.54985000  1.0
  Fe  Fe5  1  0.33276000  0.26914000  0.54985000  1.0
  Fe  Fe6  1  0.83276000  0.23086000  0.04985000  1.0
  Fe  Fe7  1  0.33276000  0.73086000  0.04985000  1.0
  Fe  Fe8  1  0.00111000  0.26909000  0.55090000  1.0
  Fe  Fe9  1  0.16455000  0.76869000  0.54874000  1.0
  Fe  Fe10  1  0.50111000  0.76909000  0.55090000  1.0
  Fe  Fe11  1  0.66455000  0.26869000  0.54874000  1.0
  Fe  Fe12  1  0.16724000  0.76914000  0.95015000  1.0
  Fe  Fe13  1  0.66724000  0.26914000  0.95015000  1.0
  Fe  Fe14  1  0.99889000  0.73091000  0.44910000  1.0
  Fe  Fe15  1  0.83545000  0.23131000  0.45126000  1.0
  Fe  Fe16  1  0.49889000  0.23091000  0.44910000  1.0
  Fe  Fe17  1  0.33545000  0.73131000  0.45126000  1.0
  Fe  Fe18  1  0.99889000  0.26909000  0.94910000  1.0
  Fe  Fe19  1  0.83545000  0.76869000  0.95126000  1.0
  Fe  Fe20  1  0.49889000  0.76909000  0.94910000  1.0
  Fe  Fe21  1  0.33545000  0.26869000  0.95126000  1.0
  Fe  Fe22  1  0.16724000  0.23086000  0.45015000  1.0
  Fe  Fe23  1  0.66724000  0.73086000  0.45015000  1.0
  H  H24  1  0.98130000  0.73510000  0.13130000  1.0
  H  H25  1  0.06790000  0.73530000  0.11640000  1.0
  H  H26  1  0.00520000  0.74470000  0.20730000  1.0
  H  H27  1  0.09430000  0.74980000  0.19100000  1.0
  H  H28  1  0.10810000  0.84170000  0.25270000  1.0
  H  H29  1  0.13220000  0.85570000  0.32890000  1.0
  H  H30  1  0.09720000  0.65380000  0.40050000  1.0
  H  H31  1  0.13050000  0.90940000  0.39890000  1.0
  H  H32  1  0.12420000  0.64990000  0.47570000  1.0
  H  H33  1  0.15450000  0.90250000  0.47470000  1.0
  H  H34  1  0.14550000  0.23220000  0.13000000  1.0
  H  H35  1  0.23190000  0.23650000  0.11430000  1.0
  H  H36  1  0.16970000  0.24850000  0.20540000  1.0
  H  H37  1  0.25880000  0.25220000  0.18830000  1.0
  H  H38  1  0.27350000  0.33800000  0.24980000  1.0
  H  H39  1  0.29860000  0.35310000  0.32570000  1.0
  H  H40  1  0.25820000  0.16280000  0.39910000  1.0
  H  H41  1  0.29910000  0.40840000  0.39600000  1.0
  H  H42  1  0.28550000  0.15860000  0.47340000  1.0
  H  H43  1  0.32390000  0.39980000  0.47080000  1.0
  H  H44  1  0.48130000  0.23510000  0.13130000  1.0
  H  H45  1  0.56790000  0.23530000  0.11640000  1.0
  H  H46  1  0.50520000  0.24470000  0.20730000  1.0
  H  H47  1  0.59430000  0.24980000  0.19100000  1.0
  H  H48  1  0.60810000  0.34170000  0.25270000  1.0
  H  H49  1  0.63220000  0.35570000  0.32890000  1.0
  H  H50  1  0.59720000  0.15380000  0.40050000  1.0
  H  H51  1  0.63050000  0.40940000  0.39890000  1.0
  H  H52  1  0.62420000  0.14990000  0.47570000  1.0
  H  H53  1  0.65450000  0.40250000  0.47470000  1.0
  H  H54  1  0.64550000  0.73220000  0.13000000  1.0
  H  H55  1  0.73190000  0.73650000  0.11430000  1.0
  H  H56  1  0.66970000  0.74850000  0.20540000  1.0
  H  H57  1  0.75880000  0.75220000  0.18830000  1.0
  H  H58  1  0.77350000  0.83800000  0.24980000  1.0
  H  H59  1  0.79860000  0.85310000  0.32570000  1.0
  H  H60  1  0.75820000  0.66280000  0.39910000  1.0
  H  H61  1  0.79910000  0.90840000  0.39600000  1.0
  H  H62  1  0.78550000  0.65860000  0.47340000  1.0
  H  H63  1  0.82390000  0.89980000  0.47080000  1.0
  H  H64  1  0.90170000  0.76660000  0.61900000  1.0
  H  H65  1  0.81560000  0.76210000  0.63490000  1.0
  H  H66  1  0.92810000  0.74930000  0.69310000  1.0
  H  H67  1  0.83930000  0.74860000  0.71000000  1.0
  H  H68  1  0.94260000  0.65610000  0.75440000  1.0
  H  H69  1  0.96710000  0.64140000  0.83020000  1.0
  H  H70  1  0.96590000  0.58890000  0.90100000  1.0
  H  H71  1  0.93360000  0.84760000  0.90330000  1.0
  H  H72  1  0.98990000  0.59640000  0.97620000  1.0
  H  H73  1  0.96210000  0.85050000  0.97780000  1.0
  H  H74  1  0.40170000  0.26660000  0.61900000  1.0
  H  H75  1  0.31560000  0.26210000  0.63490000  1.0
  H  H76  1  0.42810000  0.24930000  0.69310000  1.0
  H  H77  1  0.33930000  0.24860000  0.71000000  1.0
  H  H78  1  0.44260000  0.15610000  0.75440000  1.0
  H  H79  1  0.46710000  0.14140000  0.83020000  1.0
  H  H80  1  0.46590000  0.08890000  0.90100000  1.0
  H  H81  1  0.43360000  0.34760000  0.90330000  1.0
  H  H82  1  0.48990000  0.09640000  0.97620000  1.0
  H  H83  1  0.46210000  0.35050000  0.97780000  1.0
  H  H84  1  0.90170000  0.23340000  0.11900000  1.0
  H  H85  1  0.81560000  0.23790000  0.13490000  1.0
  H  H86  1  0.92810000  0.25070000  0.19310000  1.0
  H  H87  1  0.83930000  0.25140000  0.21000000  1.0
  H  H88  1  0.94260000  0.34390000  0.25440000  1.0
  H  H89  1  0.96710000  0.35860000  0.33020000  1.0
  H  H90  1  0.96590000  0.41110000  0.40100000  1.0
  H  H91  1  0.93360000  0.15240000  0.40330000  1.0
  H  H92  1  0.98990000  0.40360000  0.47620000  1.0
  H  H93  1  0.96210000  0.14950000  0.47780000  1.0
  H  H94  1  0.40170000  0.73340000  0.11900000  1.0
  H  H95  1  0.31560000  0.73790000  0.13490000  1.0
  H  H96  1  0.42810000  0.75070000  0.19310000  1.0
  H  H97  1  0.33930000  0.75140000  0.21000000  1.0
  H  H98  1  0.44260000  0.84390000  0.25440000  1.0
  H  H99  1  0.46710000  0.85860000  0.33020000  1.0
  H  H100  1  0.46590000  0.91110000  0.40100000  1.0
  H  H101  1  0.43360000  0.65240000  0.40330000  1.0
  H  H102  1  0.48990000  0.90360000  0.47620000  1.0
  H  H103  1  0.46210000  0.64950000  0.47780000  1.0
  H  H104  1  0.98130000  0.26490000  0.63130000  1.0
  H  H105  1  0.06790000  0.26470000  0.61640000  1.0
  H  H106  1  0.00520000  0.25530000  0.70730000  1.0
  H  H107  1  0.09430000  0.25020000  0.69100000  1.0
  H  H108  1  0.10810000  0.15830000  0.75270000  1.0
  H  H109  1  0.13220000  0.14430000  0.82890000  1.0
  H  H110  1  0.09720000  0.34620000  0.90050000  1.0
  H  H111  1  0.13050000  0.09060000  0.89890000  1.0
  H  H112  1  0.12420000  0.35010000  0.97570000  1.0
  H  H113  1  0.15450000  0.09750000  0.97470000  1.0
  H  H114  1  0.14550000  0.76780000  0.63000000  1.0
  H  H115  1  0.23190000  0.76350000  0.61430000  1.0
  H  H116  1  0.16970000  0.75150000  0.70540000  1.0
  H  H117  1  0.25880000  0.74780000  0.68830000  1.0
  H  H118  1  0.27350000  0.66200000  0.74980000  1.0
  H  H119  1  0.29860000  0.64690000  0.82570000  1.0
  H  H120  1  0.25820000  0.83720000  0.89910000  1.0
  H  H121  1  0.29910000  0.59160000  0.89600000  1.0
  H  H122  1  0.28550000  0.84140000  0.97340000  1.0
  H  H123  1  0.32390000  0.60020000  0.97080000  1.0
  H  H124  1  0.48130000  0.76490000  0.63130000  1.0
  H  H125  1  0.56790000  0.76470000  0.61640000  1.0
  H  H126  1  0.50520000  0.75530000  0.70730000  1.0
  H  H127  1  0.59430000  0.75020000  0.69100000  1.0
  H  H128  1  0.60810000  0.65830000  0.75270000  1.0
  H  H129  1  0.63220000  0.64430000  0.82890000  1.0
  H  H130  1  0.59720000  0.84620000  0.90050000  1.0
  H  H131  1  0.63050000  0.59060000  0.89890000  1.0
  H  H132  1  0.62420000  0.85010000  0.97570000  1.0
  H  H133  1  0.65450000  0.59750000  0.97470000  1.0
  H  H134  1  0.64550000  0.26780000  0.63000000  1.0
  H  H135  1  0.73190000  0.26350000  0.61430000  1.0
  H  H136  1  0.66970000  0.25150000  0.70540000  1.0
  H  H137  1  0.75880000  0.24780000  0.68830000  1.0
  H  H138  1  0.77350000  0.16200000  0.74980000  1.0
  H  H139  1  0.79860000  0.14690000  0.82570000  1.0
  H  H140  1  0.75820000  0.33720000  0.89910000  1.0
  H  H141  1  0.79910000  0.09160000  0.89600000  1.0
  H  H142  1  0.78550000  0.34140000  0.97340000  1.0
  H  H143  1  0.82390000  0.10020000  0.97080000  1.0
  H  H144  1  0.09830000  0.76660000  0.88100000  1.0
  H  H145  1  0.18440000  0.76210000  0.86510000  1.0
  H  H146  1  0.07190000  0.74930000  0.80690000  1.0
  H  H147  1  0.16070000  0.74860000  0.79000000  1.0
  H  H148  1  0.05740000  0.65610000  0.74560000  1.0
  H  H149  1  0.03290000  0.64140000  0.66980000  1.0
  H  H150  1  0.03410000  0.58890000  0.59900000  1.0
  H  H151  1  0.06640000  0.84760000  0.59670000  1.0
  H  H152  1  0.01010000  0.59640000  0.52380000  1.0
  H  H153  1  0.03790000  0.85050000  0.52220000  1.0
  H  H154  1  0.59830000  0.26660000  0.88100000  1.0
  H  H155  1  0.68440000  0.26210000  0.86510000  1.0
  H  H156  1  0.57190000  0.24930000  0.80690000  1.0
  H  H157  1  0.66070000  0.24860000  0.79000000  1.0
  H  H158  1  0.55740000  0.15610000  0.74560000  1.0
  H  H159  1  0.53290000  0.14140000  0.66980000  1.0
  H  H160  1  0.53410000  0.08890000  0.59900000  1.0
  H  H161  1  0.56640000  0.34760000  0.59670000  1.0
  H  H162  1  0.51010000  0.09640000  0.52380000  1.0
  H  H163  1  0.53790000  0.35050000  0.52220000  1.0
  H  H164  1  0.01870000  0.73510000  0.36870000  1.0
  H  H165  1  0.93210000  0.73530000  0.38360000  1.0
  H  H166  1  0.99480000  0.74470000  0.29270000  1.0
  H  H167  1  0.90570000  0.74980000  0.30900000  1.0
  H  H168  1  0.89190000  0.84170000  0.24730000  1.0
  H  H169  1  0.86780000  0.85570000  0.17110000  1.0
  H  H170  1  0.90280000  0.65380000  0.09950000  1.0
  H  H171  1  0.86950000  0.90940000  0.10110000  1.0
  H  H172  1  0.87580000  0.64990000  0.02430000  1.0
  H  H173  1  0.84550000  0.90250000  0.02530000  1.0
  H  H174  1  0.85450000  0.23220000  0.37000000  1.0
  H  H175  1  0.76810000  0.23650000  0.38570000  1.0
  H  H176  1  0.83030000  0.24850000  0.29460000  1.0
  H  H177  1  0.74120000  0.25220000  0.31170000  1.0
  H  H178  1  0.72650000  0.33800000  0.25020000  1.0
  H  H179  1  0.70140000  0.35310000  0.17430000  1.0
  H  H180  1  0.74180000  0.16280000  0.10090000  1.0
  H  H181  1  0.70090000  0.40840000  0.10400000  1.0
  H  H182  1  0.71450000  0.15860000  0.02660000  1.0
  H  H183  1  0.67610000  0.39980000  0.02920000  1.0
  H  H184  1  0.51870000  0.23510000  0.36870000  1.0
  H  H185  1  0.43210000  0.23530000  0.38360000  1.0
  H  H186  1  0.49480000  0.24470000  0.29270000  1.0
  H  H187  1  0.40570000  0.24980000  0.30900000  1.0
  H  H188  1  0.39190000  0.34170000  0.24730000  1.0
  H  H189  1  0.36780000  0.35570000  0.17110000  1.0
  H  H190  1  0.40280000  0.15380000  0.09950000  1.0
  H  H191  1  0.36950000  0.40940000  0.10110000  1.0
  H  H192  1  0.37580000  0.14990000  0.02430000  1.0
  H  H193  1  0.34550000  0.40250000  0.02530000  1.0
  H  H194  1  0.35450000  0.73220000  0.37000000  1.0
  H  H195  1  0.26810000  0.73650000  0.38570000  1.0
  H  H196  1  0.33030000  0.74850000  0.29460000  1.0
  H  H197  1  0.24120000  0.75220000  0.31170000  1.0
  H  H198  1  0.22650000  0.83800000  0.25020000  1.0
  H  H199  1  0.20140000  0.85310000  0.17430000  1.0
  H  H200  1  0.24180000  0.66280000  0.10090000  1.0
  H  H201  1  0.20090000  0.90840000  0.10400000  1.0
  H  H202  1  0.21450000  0.65860000  0.02660000  1.0
  H  H203  1  0.17610000  0.89980000  0.02920000  1.0
  H  H204  1  0.01870000  0.26490000  0.86870000  1.0
  H  H205  1  0.93210000  0.26470000  0.88360000  1.0
  H  H206  1  0.99480000  0.25530000  0.79270000  1.0
  H  H207  1  0.90570000  0.25020000  0.80900000  1.0
  H  H208  1  0.89190000  0.15830000  0.74730000  1.0
  H  H209  1  0.86780000  0.14430000  0.67110000  1.0
  H  H210  1  0.90280000  0.34620000  0.59950000  1.0
  H  H211  1  0.86950000  0.09060000  0.60110000  1.0
  H  H212  1  0.87580000  0.35010000  0.52430000  1.0
  H  H213  1  0.84550000  0.09750000  0.52530000  1.0
  H  H214  1  0.85450000  0.76780000  0.87000000  1.0
  H  H215  1  0.76810000  0.76350000  0.88570000  1.0
  H  H216  1  0.83030000  0.75150000  0.79460000  1.0
  H  H217  1  0.74120000  0.74780000  0.81170000  1.0
  H  H218  1  0.72650000  0.66200000  0.75020000  1.0
  H  H219  1  0.70140000  0.64690000  0.67430000  1.0
  H  H220  1  0.74180000  0.83720000  0.60090000  1.0
  H  H221  1  0.70090000  0.59160000  0.60400000  1.0
  H  H222  1  0.71450000  0.84140000  0.52660000  1.0
  H  H223  1  0.67610000  0.60020000  0.52920000  1.0
  H  H224  1  0.51870000  0.76490000  0.86870000  1.0
  H  H225  1  0.43210000  0.76470000  0.88360000  1.0
  H  H226  1  0.49480000  0.75530000  0.79270000  1.0
  H  H227  1  0.40570000  0.75020000  0.80900000  1.0
  H  H228  1  0.39190000  0.65830000  0.74730000  1.0
  H  H229  1  0.36780000  0.64430000  0.67110000  1.0
  H  H230  1  0.40280000  0.84620000  0.59950000  1.0
  H  H231  1  0.36950000  0.59060000  0.60110000  1.0
  H  H232  1  0.37580000  0.85010000  0.52430000  1.0
  H  H233  1  0.34550000  0.59750000  0.52530000  1.0
  H  H234  1  0.35450000  0.26780000  0.87000000  1.0
  H  H235  1  0.26810000  0.26350000  0.88570000  1.0
  H  H236  1  0.33030000  0.25150000  0.79460000  1.0
  H  H237  1  0.24120000  0.24780000  0.81170000  1.0
  H  H238  1  0.22650000  0.16200000  0.75020000  1.0
  H  H239  1  0.20140000  0.14690000  0.67430000  1.0
  H  H240  1  0.24180000  0.33720000  0.60090000  1.0
  H  H241  1  0.20090000  0.09160000  0.60400000  1.0
  H  H242  1  0.21450000  0.34140000  0.52660000  1.0
  H  H243  1  0.17610000  0.10020000  0.52920000  1.0
  H  H244  1  0.09830000  0.23340000  0.38100000  1.0
  H  H245  1  0.18440000  0.23790000  0.36510000  1.0
  H  H246  1  0.07190000  0.25070000  0.30690000  1.0
  H  H247  1  0.16070000  0.25140000  0.29000000  1.0
  H  H248  1  0.05740000  0.34390000  0.24560000  1.0
  H  H249  1  0.03290000  0.35860000  0.16980000  1.0
  H  H250  1  0.03410000  0.41110000  0.09900000  1.0
  H  H251  1  0.06640000  0.15240000  0.09670000  1.0
  H  H252  1  0.01010000  0.40360000  0.02380000  1.0
  H  H253  1  0.03790000  0.14950000  0.02220000  1.0
  H  H254  1  0.59830000  0.73340000  0.38100000  1.0
  H  H255  1  0.68440000  0.73790000  0.36510000  1.0
  H  H256  1  0.57190000  0.75070000  0.30690000  1.0
  H  H257  1  0.66070000  0.75140000  0.29000000  1.0
  H  H258  1  0.55740000  0.84390000  0.24560000  1.0
  H  H259  1  0.53290000  0.85860000  0.16980000  1.0
  H  H260  1  0.53410000  0.91110000  0.09900000  1.0
  H  H261  1  0.56640000  0.65240000  0.09670000  1.0
  H  H262  1  0.51010000  0.90360000  0.02380000  1.0
  H  H263  1  0.53790000  0.64950000  0.02220000  1.0
  Au  Au264  1  0.08117000  0.98247000  0.04453000  1.0
  Au  Au265  1  0.08585000  0.48708000  0.05257000  1.0
  Au  Au266  1  0.24639000  0.47770000  0.04347000  1.0
  Au  Au267  1  0.58117000  0.48247000  0.04453000  1.0
  Au  Au268  1  0.58585000  0.98708000  0.05257000  1.0
  Au  Au269  1  0.74639000  0.97770000  0.04347000  1.0
  Au  Au270  1  0.92114000  0.01581000  0.55307000  1.0
  Au  Au271  1  0.91672000  0.51568000  0.54456000  1.0
  Au  Au272  1  0.75091000  0.50888000  0.55223000  1.0
  Au  Au273  1  0.42114000  0.51581000  0.55307000  1.0
  Au  Au274  1  0.41672000  0.01568000  0.54457000  1.0
  Au  Au275  1  0.25091000  0.00888000  0.55223000  1.0
  Au  Au276  1  0.92114000  0.98419000  0.05307000  1.0
  Au  Au277  1  0.91672000  0.48432000  0.04456000  1.0
  Au  Au278  1  0.75091000  0.49112000  0.05223000  1.0
  Au  Au279  1  0.42114000  0.48419000  0.05307000  1.0
  Au  Au280  1  0.41672000  0.98432000  0.04457000  1.0
  Au  Au281  1  0.25091000  0.99112000  0.05223000  1.0
  Au  Au282  1  0.08117000  0.01753000  0.54453000  1.0
  Au  Au283  1  0.08585000  0.51292000  0.55258000  1.0
  Au  Au284  1  0.24639000  0.52230000  0.54347000  1.0
  Au  Au285  1  0.58117000  0.51753000  0.54453000  1.0
  Au  Au286  1  0.58585000  0.01292000  0.55258000  1.0
  Au  Au287  1  0.74639000  0.02230000  0.54347000  1.0
  Au  Au288  1  0.07886000  0.01581000  0.94693000  1.0
  Au  Au289  1  0.08328000  0.51568000  0.95544000  1.0
  Au  Au290  1  0.24909000  0.50888000  0.94777000  1.0
  Au  Au291  1  0.57886000  0.51581000  0.94693000  1.0
  Au  Au292  1  0.58328000  0.01568000  0.95543000  1.0
  Au  Au293  1  0.74909000  0.00888000  0.94777000  1.0
  Au  Au294  1  0.91883000  0.98247000  0.45547000  1.0
  Au  Au295  1  0.91415000  0.48708000  0.44742000  1.0
  Au  Au296  1  0.75361000  0.47770000  0.45653000  1.0
  Au  Au297  1  0.41883000  0.48247000  0.45547000  1.0
  Au  Au298  1  0.41415000  0.98708000  0.44743000  1.0
  Au  Au299  1  0.25361000  0.97770000  0.45653000  1.0
  Au  Au300  1  0.91883000  0.01753000  0.95547000  1.0
  Au  Au301  1  0.91415000  0.51292000  0.94742000  1.0
  Au  Au302  1  0.75361000  0.52230000  0.95653000  1.0
  Au  Au303  1  0.41883000  0.51753000  0.95547000  1.0
  Au  Au304  1  0.41415000  0.01292000  0.94743000  1.0
  Au  Au305  1  0.25361000  0.02230000  0.95653000  1.0
  Au  Au306  1  0.07886000  0.98419000  0.44693000  1.0
  Au  Au307  1  0.08328000  0.48432000  0.45543000  1.0
  Au  Au308  1  0.24909000  0.49112000  0.44777000  1.0
  Au  Au309  1  0.57886000  0.48419000  0.44693000  1.0
  Au  Au310  1  0.58328000  0.98432000  0.45543000  1.0
  Au  Au311  1  0.74909000  0.99112000  0.44777000  1.0
  C  C312  1  0.04760000  0.88630000  0.04210000  1.0
  C  C313  1  0.95360000  0.88200000  0.05710000  1.0
  C  C314  1  0.95230000  0.57890000  0.05290000  1.0
  C  C315  1  0.05350000  0.58450000  0.05060000  1.0
  C  C316  1  0.11680000  0.38490000  0.05530000  1.0
  C  C317  1  0.21140000  0.38160000  0.03950000  1.0
  C  C318  1  0.21700000  0.08830000  0.04870000  1.0
  C  C319  1  0.11550000  0.07720000  0.05110000  1.0
  C  C320  1  0.00450000  0.73820000  0.14370000  1.0
  C  C321  1  0.05500000  0.73910000  0.13510000  1.0
  C  C322  1  0.01860000  0.74530000  0.18920000  1.0
  C  C323  1  0.07090000  0.74760000  0.17950000  1.0
  C  C324  1  0.05240000  0.75310000  0.20760000  1.0
  C  C325  1  0.06880000  0.76490000  0.25550000  1.0
  C  C326  1  0.09830000  0.81450000  0.27190000  1.0
  C  C327  1  0.11230000  0.82250000  0.31620000  1.0
  C  C328  1  0.09650000  0.78050000  0.34250000  1.0
  C  C329  1  0.11150000  0.78120000  0.39090000  1.0
  C  C330  1  0.10950000  0.70540000  0.41480000  1.0
  C  C331  1  0.12870000  0.85520000  0.41400000  1.0
  C  C332  1  0.12540000  0.70400000  0.46010000  1.0
  C  C333  1  0.14330000  0.85030000  0.45940000  1.0
  C  C334  1  0.16880000  0.23810000  0.14210000  1.0
  C  C335  1  0.21910000  0.24060000  0.13320000  1.0
  C  C336  1  0.18300000  0.24720000  0.18720000  1.0
  C  C337  1  0.23550000  0.24950000  0.17720000  1.0
  C  C338  1  0.21710000  0.25450000  0.20550000  1.0
  C  C339  1  0.23420000  0.26680000  0.25350000  1.0
  C  C340  1  0.26360000  0.31290000  0.26940000  1.0
  C  C341  1  0.27820000  0.32190000  0.31340000  1.0
  C  C342  1  0.26170000  0.28270000  0.34020000  1.0
  C  C343  1  0.27690000  0.28400000  0.38850000  1.0
  C  C344  1  0.27240000  0.21180000  0.41290000  1.0
  C  C345  1  0.29610000  0.35550000  0.41130000  1.0
  C  C346  1  0.28850000  0.21060000  0.45760000  1.0
  C  C347  1  0.31090000  0.34970000  0.45590000  1.0
  C  C348  1  0.54760000  0.38630000  0.04210000  1.0
  C  C349  1  0.45360000  0.38200000  0.05710000  1.0
  C  C350  1  0.45230000  0.07890000  0.05290000  1.0
  C  C351  1  0.55350000  0.08450000  0.05060000  1.0
  C  C352  1  0.61680000  0.88490000  0.05530000  1.0
  C  C353  1  0.71140000  0.88160000  0.03950000  1.0
  C  C354  1  0.71700000  0.58830000  0.04870000  1.0
  C  C355  1  0.61550000  0.57720000  0.05110000  1.0
  C  C356  1  0.50450000  0.23820000  0.14370000  1.0
  C  C357  1  0.55500000  0.23910000  0.13510000  1.0
  C  C358  1  0.51860000  0.24530000  0.18920000  1.0
  C  C359  1  0.57090000  0.24760000  0.17950000  1.0
  C  C360  1  0.55240000  0.25310000  0.20760000  1.0
  C  C361  1  0.56880000  0.26490000  0.25550000  1.0
  C  C362  1  0.59830000  0.31450000  0.27190000  1.0
  C  C363  1  0.61230000  0.32250000  0.31620000  1.0
  C  C364  1  0.59650000  0.28050000  0.34250000  1.0
  C  C365  1  0.61150000  0.28120000  0.39090000  1.0
  C  C366  1  0.60950000  0.20540000  0.41480000  1.0
  C  C367  1  0.62870000  0.35520000  0.41400000  1.0
  C  C368  1  0.62540000  0.20400000  0.46010000  1.0
  C  C369  1  0.64330000  0.35030000  0.45940000  1.0
  C  C370  1  0.66880000  0.73810000  0.14210000  1.0
  C  C371  1  0.71910000  0.74060000  0.13320000  1.0
  C  C372  1  0.68300000  0.74720000  0.18720000  1.0
  C  C373  1  0.73550000  0.74950000  0.17720000  1.0
  C  C374  1  0.71710000  0.75450000  0.20550000  1.0
  C  C375  1  0.73420000  0.76680000  0.25350000  1.0
  C  C376  1  0.76360000  0.81290000  0.26940000  1.0
  C  C377  1  0.77820000  0.82190000  0.31340000  1.0
  C  C378  1  0.76170000  0.78270000  0.34020000  1.0
  C  C379  1  0.77690000  0.78400000  0.38850000  1.0
  C  C380  1  0.77240000  0.71180000  0.41290000  1.0
  C  C381  1  0.79610000  0.85550000  0.41130000  1.0
  C  C382  1  0.78850000  0.71060000  0.45760000  1.0
  C  C383  1  0.81090000  0.84970000  0.45590000  1.0
  C  C384  1  0.88870000  0.92130000  0.54910000  1.0
  C  C385  1  0.88280000  0.60690000  0.54100000  1.0
  C  C386  1  0.78220000  0.60700000  0.55630000  1.0
  C  C387  1  0.78060000  0.93190000  0.55210000  1.0
  C  C388  1  0.88880000  0.76140000  0.63770000  1.0
  C  C389  1  0.83900000  0.75930000  0.64710000  1.0
  C  C390  1  0.90480000  0.75160000  0.68180000  1.0
  C  C391  1  0.85280000  0.75070000  0.69200000  1.0
  C  C392  1  0.88660000  0.74520000  0.71010000  1.0
  C  C393  1  0.90380000  0.73180000  0.75780000  1.0
  C  C394  1  0.93290000  0.68320000  0.77380000  1.0
  C  C395  1  0.94730000  0.67500000  0.81800000  1.0
  C  C396  1  0.93200000  0.71750000  0.84500000  1.0
  C  C397  1  0.94710000  0.71780000  0.89340000  1.0
  C  C398  1  0.96430000  0.64340000  0.91610000  1.0
  C  C399  1  0.94570000  0.79560000  0.91740000  1.0
  C  C400  1  0.97900000  0.64900000  0.96100000  1.0
  C  C401  1  0.96250000  0.79570000  0.96220000  1.0
  C  C402  1  0.38870000  0.42130000  0.54910000  1.0
  C  C403  1  0.38280000  0.10690000  0.54100000  1.0
  C  C404  1  0.28220000  0.10700000  0.55630000  1.0
  C  C405  1  0.28060000  0.43190000  0.55210000  1.0
  C  C406  1  0.38880000  0.26140000  0.63770000  1.0
  C  C407  1  0.33900000  0.25930000  0.64710000  1.0
  C  C408  1  0.40480000  0.25160000  0.68180000  1.0
  C  C409  1  0.35280000  0.25070000  0.69200000  1.0
  C  C410  1  0.38660000  0.24520000  0.71010000  1.0
  C  C411  1  0.40380000  0.23180000  0.75780000  1.0
  C  C412  1  0.43290000  0.18320000  0.77380000  1.0
  C  C413  1  0.44730000  0.17500000  0.81800000  1.0
  C  C414  1  0.43200000  0.21750000  0.84500000  1.0
  C  C415  1  0.44710000  0.21780000  0.89340000  1.0
  C  C416  1  0.46430000  0.14340000  0.91610000  1.0
  C  C417  1  0.44570000  0.29560000  0.91740000  1.0
  C  C418  1  0.47900000  0.14900000  0.96100000  1.0
  C  C419  1  0.46250000  0.29570000  0.96220000  1.0
  C  C420  1  0.88870000  0.07870000  0.04910000  1.0
  C  C421  1  0.88280000  0.39310000  0.04100000  1.0
  C  C422  1  0.78220000  0.39300000  0.05630000  1.0
  C  C423  1  0.78060000  0.06810000  0.05210000  1.0
  C  C424  1  0.88880000  0.23860000  0.13770000  1.0
  C  C425  1  0.83900000  0.24070000  0.14710000  1.0
  C  C426  1  0.90480000  0.24840000  0.18180000  1.0
  C  C427  1  0.85280000  0.24930000  0.19200000  1.0
  C  C428  1  0.88660000  0.25480000  0.21010000  1.0
  C  C429  1  0.90380000  0.26820000  0.25780000  1.0
  C  C430  1  0.93290000  0.31680000  0.27380000  1.0
  C  C431  1  0.94730000  0.32500000  0.31800000  1.0
  C  C432  1  0.93200000  0.28250000  0.34500000  1.0
  C  C433  1  0.94710000  0.28220000  0.39340000  1.0
  C  C434  1  0.96430000  0.35660000  0.41610000  1.0
  C  C435  1  0.94570000  0.20440000  0.41740000  1.0
  C  C436  1  0.97900000  0.35100000  0.46100000  1.0
  C  C437  1  0.96250000  0.20430000  0.46220000  1.0
  C  C438  1  0.38870000  0.57870000  0.04910000  1.0
  C  C439  1  0.38280000  0.89310000  0.04100000  1.0
  C  C440  1  0.28220000  0.89300000  0.05630000  1.0
  C  C441  1  0.28060000  0.56810000  0.05210000  1.0
  C  C442  1  0.38880000  0.73860000  0.13770000  1.0
  C  C443  1  0.33900000  0.74070000  0.14710000  1.0
  C  C444  1  0.40480000  0.74840000  0.18180000  1.0
  C  C445  1  0.35280000  0.74930000  0.19200000  1.0
  C  C446  1  0.38660000  0.75480000  0.21010000  1.0
  C  C447  1  0.40380000  0.76820000  0.25780000  1.0
  C  C448  1  0.43290000  0.81680000  0.27380000  1.0
  C  C449  1  0.44730000  0.82500000  0.31800000  1.0
  C  C450  1  0.43200000  0.78250000  0.34500000  1.0
  C  C451  1  0.44710000  0.78220000  0.39340000  1.0
  C  C452  1  0.46430000  0.85660000  0.41610000  1.0
  C  C453  1  0.44570000  0.70440000  0.41740000  1.0
  C  C454  1  0.47900000  0.85100000  0.46100000  1.0
  C  C455  1  0.46250000  0.70430000  0.46220000  1.0
  C  C456  1  0.04760000  0.11370000  0.54210000  1.0
  C  C457  1  0.95360000  0.11800000  0.55710000  1.0
  C  C458  1  0.95230000  0.42110000  0.55290000  1.0
  C  C459  1  0.05350000  0.41550000  0.55060000  1.0
  C  C460  1  0.11680000  0.61510000  0.55530000  1.0
  C  C461  1  0.21140000  0.61840000  0.53950000  1.0
  C  C462  1  0.21700000  0.91170000  0.54870000  1.0
  C  C463  1  0.11550000  0.92280000  0.55110000  1.0
  C  C464  1  0.00450000  0.26180000  0.64370000  1.0
  C  C465  1  0.05500000  0.26090000  0.63510000  1.0
  C  C466  1  0.01860000  0.25470000  0.68920000  1.0
  C  C467  1  0.07090000  0.25240000  0.67950000  1.0
  C  C468  1  0.05240000  0.24690000  0.70760000  1.0
  C  C469  1  0.06880000  0.23510000  0.75550000  1.0
  C  C470  1  0.09830000  0.18550000  0.77190000  1.0
  C  C471  1  0.11230000  0.17750000  0.81620000  1.0
  C  C472  1  0.09650000  0.21950000  0.84250000  1.0
  C  C473  1  0.11150000  0.21880000  0.89090000  1.0
  C  C474  1  0.10950000  0.29460000  0.91480000  1.0
  C  C475  1  0.12870000  0.14480000  0.91400000  1.0
  C  C476  1  0.12540000  0.29600000  0.96010000  1.0
  C  C477  1  0.14330000  0.14970000  0.95940000  1.0
  C  C478  1  0.16880000  0.76190000  0.64210000  1.0
  C  C479  1  0.21910000  0.75940000  0.63320000  1.0
  C  C480  1  0.18300000  0.75280000  0.68720000  1.0
  C  C481  1  0.23550000  0.75050000  0.67720000  1.0
  C  C482  1  0.21710000  0.74550000  0.70550000  1.0
  C  C483  1  0.23420000  0.73320000  0.75350000  1.0
  C  C484  1  0.26360000  0.68710000  0.76940000  1.0
  C  C485  1  0.27820000  0.67810000  0.81340000  1.0
  C  C486  1  0.26170000  0.71730000  0.84020000  1.0
  C  C487  1  0.27690000  0.71600000  0.88850000  1.0
  C  C488  1  0.27240000  0.78820000  0.91290000  1.0
  C  C489  1  0.29610000  0.64450000  0.91130000  1.0
  C  C490  1  0.28850000  0.78940000  0.95760000  1.0
  C  C491  1  0.31090000  0.65030000  0.95590000  1.0
  C  C492  1  0.54760000  0.61370000  0.54210000  1.0
  C  C493  1  0.45360000  0.61800000  0.55710000  1.0
  C  C494  1  0.45230000  0.92110000  0.55290000  1.0
  C  C495  1  0.55350000  0.91550000  0.55060000  1.0
  C  C496  1  0.61680000  0.11510000  0.55530000  1.0
  C  C497  1  0.71140000  0.11840000  0.53950000  1.0
  C  C498  1  0.71700000  0.41170000  0.54870000  1.0
  C  C499  1  0.61550000  0.42280000  0.55110000  1.0
  C  C500  1  0.50450000  0.76180000  0.64370000  1.0
  C  C501  1  0.55500000  0.76090000  0.63510000  1.0
  C  C502  1  0.51860000  0.75470000  0.68920000  1.0
  C  C503  1  0.57090000  0.75240000  0.67950000  1.0
  C  C504  1  0.55240000  0.74690000  0.70760000  1.0
  C  C505  1  0.56880000  0.73510000  0.75550000  1.0
  C  C506  1  0.59830000  0.68550000  0.77190000  1.0
  C  C507  1  0.61230000  0.67750000  0.81620000  1.0
  C  C508  1  0.59650000  0.71950000  0.84250000  1.0
  C  C509  1  0.61150000  0.71880000  0.89090000  1.0
  C  C510  1  0.60950000  0.79460000  0.91480000  1.0
  C  C511  1  0.62870000  0.64480000  0.91400000  1.0
  C  C512  1  0.62540000  0.79600000  0.96010000  1.0
  C  C513  1  0.64330000  0.64970000  0.95940000  1.0
  C  C514  1  0.66880000  0.26190000  0.64210000  1.0
  C  C515  1  0.71910000  0.25940000  0.63320000  1.0
  C  C516  1  0.68300000  0.25280000  0.68720000  1.0
  C  C517  1  0.73550000  0.25050000  0.67720000  1.0
  C  C518  1  0.71710000  0.24550000  0.70550000  1.0
  C  C519  1  0.73420000  0.23320000  0.75350000  1.0
  C  C520  1  0.76360000  0.18710000  0.76940000  1.0
  C  C521  1  0.77820000  0.17810000  0.81340000  1.0
  C  C522  1  0.76170000  0.21730000  0.84020000  1.0
  C  C523  1  0.77690000  0.21600000  0.88850000  1.0
  C  C524  1  0.77240000  0.28820000  0.91290000  1.0
  C  C525  1  0.79610000  0.14450000  0.91130000  1.0
  C  C526  1  0.78850000  0.28940000  0.95760000  1.0
  C  C527  1  0.81090000  0.15030000  0.95590000  1.0
  C  C528  1  0.11130000  0.92130000  0.95090000  1.0
  C  C529  1  0.11720000  0.60690000  0.95900000  1.0
  C  C530  1  0.21780000  0.60700000  0.94370000  1.0
  C  C531  1  0.21940000  0.93190000  0.94790000  1.0
  C  C532  1  0.11120000  0.76140000  0.86230000  1.0
  C  C533  1  0.16100000  0.75930000  0.85290000  1.0
  C  C534  1  0.09520000  0.75160000  0.81820000  1.0
  C  C535  1  0.14720000  0.75070000  0.80800000  1.0
  C  C536  1  0.11340000  0.74520000  0.78990000  1.0
  C  C537  1  0.09620000  0.73180000  0.74220000  1.0
  C  C538  1  0.06710000  0.68320000  0.72620000  1.0
  C  C539  1  0.05270000  0.67500000  0.68200000  1.0
  C  C540  1  0.06800000  0.71750000  0.65500000  1.0
  C  C541  1  0.05290000  0.71780000  0.60660000  1.0
  C  C542  1  0.03570000  0.64340000  0.58390000  1.0
  C  C543  1  0.05430000  0.79560000  0.58260000  1.0
  C  C544  1  0.02100000  0.64900000  0.53900000  1.0
  C  C545  1  0.03750000  0.79570000  0.53780000  1.0
  C  C546  1  0.61130000  0.42130000  0.95090000  1.0
  C  C547  1  0.61720000  0.10690000  0.95900000  1.0
  C  C548  1  0.71780000  0.10700000  0.94370000  1.0
  C  C549  1  0.71940000  0.43190000  0.94790000  1.0
  C  C550  1  0.61120000  0.26140000  0.86230000  1.0
  C  C551  1  0.66100000  0.25930000  0.85290000  1.0
  C  C552  1  0.59520000  0.25160000  0.81820000  1.0
  C  C553  1  0.64720000  0.25070000  0.80800000  1.0
  C  C554  1  0.61340000  0.24520000  0.78990000  1.0
  C  C555  1  0.59620000  0.23180000  0.74220000  1.0
  C  C556  1  0.56710000  0.18320000  0.72620000  1.0
  C  C557  1  0.55270000  0.17500000  0.68200000  1.0
  C  C558  1  0.56800000  0.21750000  0.65500000  1.0
  C  C559  1  0.55290000  0.21780000  0.60660000  1.0
  C  C560  1  0.53570000  0.14340000  0.58390000  1.0
  C  C561  1  0.55430000  0.29560000  0.58260000  1.0
  C  C562  1  0.52100000  0.14900000  0.53900000  1.0
  C  C563  1  0.53750000  0.29570000  0.53780000  1.0
  C  C564  1  0.95240000  0.88630000  0.45790000  1.0
  C  C565  1  0.04640000  0.88200000  0.44290000  1.0
  C  C566  1  0.04770000  0.57890000  0.44710000  1.0
  C  C567  1  0.94650000  0.58450000  0.44940000  1.0
  C  C568  1  0.88320000  0.38490000  0.44470000  1.0
  C  C569  1  0.78860000  0.38160000  0.46050000  1.0
  C  C570  1  0.78300000  0.08830000  0.45130000  1.0
  C  C571  1  0.88450000  0.07720000  0.44890000  1.0
  C  C572  1  0.99550000  0.73820000  0.35630000  1.0
  C  C573  1  0.94500000  0.73910000  0.36490000  1.0
  C  C574  1  0.98140000  0.74530000  0.31080000  1.0
  C  C575  1  0.92910000  0.74760000  0.32050000  1.0
  C  C576  1  0.94760000  0.75310000  0.29240000  1.0
  C  C577  1  0.93120000  0.76490000  0.24450000  1.0
  C  C578  1  0.90170000  0.81450000  0.22810000  1.0
  C  C579  1  0.88770000  0.82250000  0.18380000  1.0
  C  C580  1  0.90350000  0.78050000  0.15750000  1.0
  C  C581  1  0.88850000  0.78120000  0.10910000  1.0
  C  C582  1  0.89050000  0.70540000  0.08520000  1.0
  C  C583  1  0.87130000  0.85520000  0.08600000  1.0
  C  C584  1  0.87460000  0.70400000  0.03990000  1.0
  C  C585  1  0.85670000  0.85030000  0.04060000  1.0
  C  C586  1  0.83120000  0.23810000  0.35790000  1.0
  C  C587  1  0.78090000  0.24060000  0.36680000  1.0
  C  C588  1  0.81700000  0.24720000  0.31280000  1.0
  C  C589  1  0.76450000  0.24950000  0.32280000  1.0
  C  C590  1  0.78290000  0.25450000  0.29450000  1.0
  C  C591  1  0.76580000  0.26680000  0.24650000  1.0
  C  C592  1  0.73640000  0.31290000  0.23060000  1.0
  C  C593  1  0.72180000  0.32190000  0.18660000  1.0
  C  C594  1  0.73830000  0.28270000  0.15980000  1.0
  C  C595  1  0.72310000  0.28400000  0.11150000  1.0
  C  C596  1  0.72760000  0.21180000  0.08710000  1.0
  C  C597  1  0.70390000  0.35550000  0.08870000  1.0
  C  C598  1  0.71150000  0.21060000  0.04240000  1.0
  C  C599  1  0.68910000  0.34970000  0.04410000  1.0
  C  C600  1  0.45240000  0.38630000  0.45790000  1.0
  C  C601  1  0.54640000  0.38200000  0.44290000  1.0
  C  C602  1  0.54770000  0.07890000  0.44710000  1.0
  C  C603  1  0.44650000  0.08450000  0.44940000  1.0
  C  C604  1  0.38320000  0.88490000  0.44470000  1.0
  C  C605  1  0.28860000  0.88160000  0.46050000  1.0
  C  C606  1  0.28300000  0.58830000  0.45130000  1.0
  C  C607  1  0.38450000  0.57720000  0.44890000  1.0
  C  C608  1  0.49550000  0.23820000  0.35630000  1.0
  C  C609  1  0.44500000  0.23910000  0.36490000  1.0
  C  C610  1  0.48140000  0.24530000  0.31080000  1.0
  C  C611  1  0.42910000  0.24760000  0.32050000  1.0
  C  C612  1  0.44760000  0.25310000  0.29240000  1.0
  C  C613  1  0.43120000  0.26490000  0.24450000  1.0
  C  C614  1  0.40170000  0.31450000  0.22810000  1.0
  C  C615  1  0.38770000  0.32250000  0.18380000  1.0
  C  C616  1  0.40350000  0.28050000  0.15750000  1.0
  C  C617  1  0.38850000  0.28120000  0.10910000  1.0
  C  C618  1  0.39050000  0.20540000  0.08520000  1.0
  C  C619  1  0.37130000  0.35520000  0.08600000  1.0
  C  C620  1  0.37460000  0.20400000  0.03990000  1.0
  C  C621  1  0.35670000  0.35030000  0.04060000  1.0
  C  C622  1  0.33120000  0.73810000  0.35790000  1.0
  C  C623  1  0.28090000  0.74060000  0.36680000  1.0
  C  C624  1  0.31700000  0.74720000  0.31280000  1.0
  C  C625  1  0.26450000  0.74950000  0.32280000  1.0
  C  C626  1  0.28290000  0.75450000  0.29450000  1.0
  C  C627  1  0.26580000  0.76680000  0.24650000  1.0
  C  C628  1  0.23640000  0.81290000  0.23060000  1.0
  C  C629  1  0.22180000  0.82190000  0.18660000  1.0
  C  C630  1  0.23830000  0.78270000  0.15980000  1.0
  C  C631  1  0.22310000  0.78400000  0.11150000  1.0
  C  C632  1  0.22760000  0.71180000  0.08710000  1.0
  C  C633  1  0.20390000  0.85550000  0.08870000  1.0
  C  C634  1  0.21150000  0.71060000  0.04240000  1.0
  C  C635  1  0.18910000  0.84970000  0.04410000  1.0
  C  C636  1  0.95240000  0.11370000  0.95790000  1.0
  C  C637  1  0.04640000  0.11800000  0.94290000  1.0
  C  C638  1  0.04770000  0.42110000  0.94710000  1.0
  C  C639  1  0.94650000  0.41550000  0.94940000  1.0
  C  C640  1  0.88320000  0.61510000  0.94470000  1.0
  C  C641  1  0.78860000  0.61840000  0.96050000  1.0
  C  C642  1  0.78300000  0.91170000  0.95130000  1.0
  C  C643  1  0.88450000  0.92280000  0.94890000  1.0
  C  C644  1  0.99550000  0.26180000  0.85630000  1.0
  C  C645  1  0.94500000  0.26090000  0.86490000  1.0
  C  C646  1  0.98140000  0.25470000  0.81080000  1.0
  C  C647  1  0.92910000  0.25240000  0.82050000  1.0
  C  C648  1  0.94760000  0.24690000  0.79240000  1.0
  C  C649  1  0.93120000  0.23510000  0.74450000  1.0
  C  C650  1  0.90170000  0.18550000  0.72810000  1.0
  C  C651  1  0.88770000  0.17750000  0.68380000  1.0
  C  C652  1  0.90350000  0.21950000  0.65750000  1.0
  C  C653  1  0.88850000  0.21880000  0.60910000  1.0
  C  C654  1  0.89050000  0.29460000  0.58520000  1.0
  C  C655  1  0.87130000  0.14480000  0.58600000  1.0
  C  C656  1  0.87460000  0.29600000  0.53990000  1.0
  C  C657  1  0.85670000  0.14970000  0.54060000  1.0
  C  C658  1  0.83120000  0.76190000  0.85790000  1.0
  C  C659  1  0.78090000  0.75940000  0.86680000  1.0
  C  C660  1  0.81700000  0.75280000  0.81280000  1.0
  C  C661  1  0.76450000  0.75050000  0.82280000  1.0
  C  C662  1  0.78290000  0.74550000  0.79450000  1.0
  C  C663  1  0.76580000  0.73320000  0.74650000  1.0
  C  C664  1  0.73640000  0.68710000  0.73060000  1.0
  C  C665  1  0.72180000  0.67810000  0.68660000  1.0
  C  C666  1  0.73830000  0.71730000  0.65980000  1.0
  C  C667  1  0.72310000  0.71600000  0.61150000  1.0
  C  C668  1  0.72760000  0.78820000  0.58710000  1.0
  C  C669  1  0.70390000  0.64450000  0.58870000  1.0
  C  C670  1  0.71150000  0.78940000  0.54240000  1.0
  C  C671  1  0.68910000  0.65030000  0.54410000  1.0
  C  C672  1  0.45240000  0.61370000  0.95790000  1.0
  C  C673  1  0.54640000  0.61800000  0.94290000  1.0
  C  C674  1  0.54770000  0.92110000  0.94710000  1.0
  C  C675  1  0.44650000  0.91550000  0.94940000  1.0
  C  C676  1  0.38320000  0.11510000  0.94470000  1.0
  C  C677  1  0.28860000  0.11840000  0.96050000  1.0
  C  C678  1  0.28300000  0.41170000  0.95130000  1.0
  C  C679  1  0.38450000  0.42280000  0.94890000  1.0
  C  C680  1  0.49550000  0.76180000  0.85630000  1.0
  C  C681  1  0.44500000  0.76090000  0.86490000  1.0
  C  C682  1  0.48140000  0.75470000  0.81080000  1.0
  C  C683  1  0.42910000  0.75240000  0.82050000  1.0
  C  C684  1  0.44760000  0.74690000  0.79240000  1.0
  C  C685  1  0.43120000  0.73510000  0.74450000  1.0
  C  C686  1  0.40170000  0.68550000  0.72810000  1.0
  C  C687  1  0.38770000  0.67750000  0.68380000  1.0
  C  C688  1  0.40350000  0.71950000  0.65750000  1.0
  C  C689  1  0.38850000  0.71880000  0.60910000  1.0
  C  C690  1  0.39050000  0.79460000  0.58520000  1.0
  C  C691  1  0.37130000  0.64480000  0.58600000  1.0
  C  C692  1  0.37460000  0.79600000  0.53990000  1.0
  C  C693  1  0.35670000  0.64970000  0.54060000  1.0
  C  C694  1  0.33120000  0.26190000  0.85790000  1.0
  C  C695  1  0.28090000  0.25940000  0.86680000  1.0
  C  C696  1  0.31700000  0.25280000  0.81280000  1.0
  C  C697  1  0.26450000  0.25050000  0.82280000  1.0
  C  C698  1  0.28290000  0.24550000  0.79450000  1.0
  C  C699  1  0.26580000  0.23320000  0.74650000  1.0
  C  C700  1  0.23640000  0.18710000  0.73060000  1.0
  C  C701  1  0.22180000  0.17810000  0.68660000  1.0
  C  C702  1  0.23830000  0.21730000  0.65980000  1.0
  C  C703  1  0.22310000  0.21600000  0.61150000  1.0
  C  C704  1  0.22760000  0.28820000  0.58710000  1.0
  C  C705  1  0.20390000  0.14450000  0.58870000  1.0
  C  C706  1  0.21150000  0.28940000  0.54240000  1.0
  C  C707  1  0.18910000  0.15030000  0.54410000  1.0
  C  C708  1  0.11130000  0.07870000  0.45090000  1.0
  C  C709  1  0.11720000  0.39310000  0.45900000  1.0
  C  C710  1  0.21780000  0.39300000  0.44370000  1.0
  C  C711  1  0.21940000  0.06810000  0.44790000  1.0
  C  C712  1  0.11120000  0.23860000  0.36230000  1.0
  C  C713  1  0.16100000  0.24070000  0.35290000  1.0
  C  C714  1  0.09520000  0.24840000  0.31820000  1.0
  C  C715  1  0.14720000  0.24930000  0.30800000  1.0
  C  C716  1  0.11340000  0.25480000  0.28990000  1.0
  C  C717  1  0.09620000  0.26820000  0.24220000  1.0
  C  C718  1  0.06710000  0.31680000  0.22620000  1.0
  C  C719  1  0.05270000  0.32500000  0.18200000  1.0
  C  C720  1  0.06800000  0.28250000  0.15500000  1.0
  C  C721  1  0.05290000  0.28220000  0.10660000  1.0
  C  C722  1  0.03570000  0.35660000  0.08390000  1.0
  C  C723  1  0.05430000  0.20440000  0.08260000  1.0
  C  C724  1  0.02100000  0.35100000  0.03900000  1.0
  C  C725  1  0.03750000  0.20430000  0.03780000  1.0
  C  C726  1  0.61130000  0.57870000  0.45090000  1.0
  C  C727  1  0.61720000  0.89310000  0.45900000  1.0
  C  C728  1  0.71780000  0.89300000  0.44370000  1.0
  C  C729  1  0.71940000  0.56810000  0.44790000  1.0
  C  C730  1  0.61120000  0.73860000  0.36230000  1.0
  C  C731  1  0.66100000  0.74070000  0.35290000  1.0
  C  C732  1  0.59520000  0.74840000  0.31820000  1.0
  C  C733  1  0.64720000  0.74930000  0.30800000  1.0
  C  C734  1  0.61340000  0.75480000  0.28990000  1.0
  C  C735  1  0.59620000  0.76820000  0.24220000  1.0
  C  C736  1  0.56710000  0.81680000  0.22620000  1.0
  C  C737  1  0.55270000  0.82500000  0.18200000  1.0
  C  C738  1  0.56800000  0.78250000  0.15500000  1.0
  C  C739  1  0.55290000  0.78220000  0.10660000  1.0
  C  C740  1  0.53570000  0.85660000  0.08390000  1.0
  C  C741  1  0.55430000  0.70440000  0.08260000  1.0
  C  C742  1  0.52100000  0.85100000  0.03900000  1.0
  C  C743  1  0.53750000  0.70430000  0.03780000  1.0
  N  N744  1  0.03010000  0.82950000  0.04410000  1.0
  N  N745  1  0.97003000  0.82430000  0.05530000  1.0
  N  N746  1  0.97142000  0.63340000  0.05490000  1.0
  N  N747  1  0.03391000  0.63840000  0.04890000  1.0
  N  N748  1  0.13353000  0.32560000  0.05360000  1.0
  N  N749  1  0.19345000  0.32830000  0.04170000  1.0
  N  N750  1  0.19703000  0.14020000  0.04670000  1.0
  N  N751  1  0.13460000  0.13260000  0.05370000  1.0
  N  N752  1  0.02224000  0.73580000  0.11700000  1.0
  N  N753  1  0.05420000  0.72980000  0.28200000  1.0
  N  N754  1  0.06860000  0.73620000  0.32610000  1.0
  N  N755  1  0.14218000  0.77420000  0.48230000  1.0
  N  N756  1  0.18616000  0.23710000  0.11470000  1.0
  N  N757  1  0.21900000  0.23340000  0.27980000  1.0
  N  N758  1  0.23330000  0.24030000  0.32380000  1.0
  N  N759  1  0.30790000  0.27660000  0.48010000  1.0
  N  N760  1  0.53010000  0.32950000  0.04410000  1.0
  N  N761  1  0.47003000  0.32430000  0.05530000  1.0
  N  N762  1  0.47142000  0.13340000  0.05490000  1.0
  N  N763  1  0.53391000  0.13840000  0.04890000  1.0
  N  N764  1  0.63353000  0.82560000  0.05360000  1.0
  N  N765  1  0.69345000  0.82830000  0.04170000  1.0
  N  N766  1  0.69703000  0.64020000  0.04670000  1.0
  N  N767  1  0.63460000  0.63260000  0.05370000  1.0
  N  N768  1  0.52224000  0.23580000  0.11700000  1.0
  N  N769  1  0.55420000  0.22980000  0.28200000  1.0
  N  N770  1  0.56860000  0.23620000  0.32610000  1.0
  N  N771  1  0.64218000  0.27420000  0.48230000  1.0
  N  N772  1  0.68616000  0.73710000  0.11470000  1.0
  N  N773  1  0.71900000  0.73340000  0.27980000  1.0
  N  N774  1  0.73330000  0.74030000  0.32380000  1.0
  N  N775  1  0.80790000  0.77660000  0.48010000  1.0
  N  N776  1  0.86810000  0.86650000  0.54760000  1.0
  N  N777  1  0.86380000  0.66460000  0.54130000  1.0
  N  N778  1  0.79980000  0.66850000  0.55610000  1.0
  N  N779  1  0.80090000  0.87580000  0.55570000  1.0
  N  N780  1  0.85618000  0.76400000  0.61960000  1.0
  N  N781  1  0.88910000  0.76870000  0.78450000  1.0
  N  N782  1  0.90380000  0.76130000  0.82840000  1.0
  N  N783  1  0.97880000  0.72580000  0.98480000  1.0
  N  N784  1  0.36810000  0.36650000  0.54760000  1.0
  N  N785  1  0.36380000  0.16460000  0.54130000  1.0
  N  N786  1  0.29980000  0.16850000  0.55610000  1.0
  N  N787  1  0.30090000  0.37580000  0.55570000  1.0
  N  N788  1  0.35618000  0.26400000  0.61960000  1.0
  N  N789  1  0.38910000  0.26870000  0.78450000  1.0
  N  N790  1  0.40380000  0.26130000  0.82840000  1.0
  N  N791  1  0.47880000  0.22580000  0.98480000  1.0
  N  N792  1  0.86810000  0.13350000  0.04760000  1.0
  N  N793  1  0.86380000  0.33540000  0.04130000  1.0
  N  N794  1  0.79980000  0.33150000  0.05610000  1.0
  N  N795  1  0.80090000  0.12420000  0.05570000  1.0
  N  N796  1  0.85618000  0.23600000  0.11960000  1.0
  N  N797  1  0.88910000  0.23130000  0.28450000  1.0
  N  N798  1  0.90380000  0.23870000  0.32840000  1.0
  N  N799  1  0.97880000  0.27420000  0.48480000  1.0
  N  N800  1  0.36810000  0.63350000  0.04760000  1.0
  N  N801  1  0.36380000  0.83540000  0.04130000  1.0
  N  N802  1  0.29980000  0.83150000  0.05610000  1.0
  N  N803  1  0.30090000  0.62420000  0.05570000  1.0
  N  N804  1  0.35618000  0.73600000  0.11960000  1.0
  N  N805  1  0.38910000  0.73130000  0.28450000  1.0
  N  N806  1  0.40380000  0.73870000  0.32840000  1.0
  N  N807  1  0.47880000  0.77420000  0.48480000  1.0
  N  N808  1  0.03010000  0.17050000  0.54410000  1.0
  N  N809  1  0.97003000  0.17570000  0.55530000  1.0
  N  N810  1  0.97142000  0.36660000  0.55490000  1.0
  N  N811  1  0.03391000  0.36160000  0.54890000  1.0
  N  N812  1  0.13353000  0.67440000  0.55360000  1.0
  N  N813  1  0.19345000  0.67170000  0.54170000  1.0
  N  N814  1  0.19703000  0.85980000  0.54670000  1.0
  N  N815  1  0.13460000  0.86740000  0.55370000  1.0
  N  N816  1  0.02224000  0.26420000  0.61700000  1.0
  N  N817  1  0.05420000  0.27020000  0.78200000  1.0
  N  N818  1  0.06860000  0.26380000  0.82610000  1.0
  N  N819  1  0.14218000  0.22580000  0.98230000  1.0
  N  N820  1  0.18616000  0.76290000  0.61470000  1.0
  N  N821  1  0.21900000  0.76660000  0.77980000  1.0
  N  N822  1  0.23330000  0.75970000  0.82380000  1.0
  N  N823  1  0.30790000  0.72340000  0.98010000  1.0
  N  N824  1  0.53010000  0.67050000  0.54410000  1.0
  N  N825  1  0.47003000  0.67570000  0.55530000  1.0
  N  N826  1  0.47142000  0.86660000  0.55490000  1.0
  N  N827  1  0.53391000  0.86160000  0.54890000  1.0
  N  N828  1  0.63353000  0.17440000  0.55360000  1.0
  N  N829  1  0.69345000  0.17170000  0.54170000  1.0
  N  N830  1  0.69703000  0.35980000  0.54670000  1.0
  N  N831  1  0.63460000  0.36740000  0.55370000  1.0
  N  N832  1  0.52224000  0.76420000  0.61700000  1.0
  N  N833  1  0.55420000  0.77020000  0.78200000  1.0
  N  N834  1  0.56860000  0.76380000  0.82610000  1.0
  N  N835  1  0.64218000  0.72580000  0.98230000  1.0
  N  N836  1  0.68616000  0.26290000  0.61470000  1.0
  N  N837  1  0.71900000  0.26660000  0.77980000  1.0
  N  N838  1  0.73330000  0.25970000  0.82380000  1.0
  N  N839  1  0.80790000  0.22340000  0.98010000  1.0
  N  N840  1  0.13190000  0.86650000  0.95240000  1.0
  N  N841  1  0.13620000  0.66460000  0.95870000  1.0
  N  N842  1  0.20020000  0.66850000  0.94390000  1.0
  N  N843  1  0.19910000  0.87580000  0.94430000  1.0
  N  N844  1  0.14382000  0.76400000  0.88040000  1.0
  N  N845  1  0.11090000  0.76870000  0.71550000  1.0
  N  N846  1  0.09620000  0.76130000  0.67160000  1.0
  N  N847  1  0.02120000  0.72580000  0.51520000  1.0
  N  N848  1  0.63190000  0.36650000  0.95240000  1.0
  N  N849  1  0.63620000  0.16460000  0.95870000  1.0
  N  N850  1  0.70020000  0.16850000  0.94390000  1.0
  N  N851  1  0.69910000  0.37580000  0.94430000  1.0
  N  N852  1  0.64382000  0.26400000  0.88040000  1.0
  N  N853  1  0.61090000  0.26870000  0.71550000  1.0
  N  N854  1  0.59620000  0.26130000  0.67160000  1.0
  N  N855  1  0.52120000  0.22580000  0.51520000  1.0
  N  N856  1  0.96990000  0.82950000  0.45590000  1.0
  N  N857  1  0.02997000  0.82430000  0.44470000  1.0
  N  N858  1  0.02858000  0.63340000  0.44510000  1.0
  N  N859  1  0.96609000  0.63840000  0.45110000  1.0
  N  N860  1  0.86647000  0.32560000  0.44640000  1.0
  N  N861  1  0.80655000  0.32830000  0.45830000  1.0
  N  N862  1  0.80297000  0.14020000  0.45330000  1.0
  N  N863  1  0.86540000  0.13260000  0.44630000  1.0
  N  N864  1  0.97776000  0.73580000  0.38300000  1.0
  N  N865  1  0.94580000  0.72980000  0.21800000  1.0
  N  N866  1  0.93140000  0.73620000  0.17390000  1.0
  N  N867  1  0.85782000  0.77420000  0.01770000  1.0
  N  N868  1  0.81384000  0.23710000  0.38530000  1.0
  N  N869  1  0.78100000  0.23340000  0.22020000  1.0
  N  N870  1  0.76670000  0.24030000  0.17620000  1.0
  N  N871  1  0.69210000  0.27660000  0.01990000  1.0
  N  N872  1  0.46990000  0.32950000  0.45590000  1.0
  N  N873  1  0.52997000  0.32430000  0.44470000  1.0
  N  N874  1  0.52858000  0.13340000  0.44510000  1.0
  N  N875  1  0.46609000  0.13840000  0.45110000  1.0
  N  N876  1  0.36647000  0.82560000  0.44640000  1.0
  N  N877  1  0.30655000  0.82830000  0.45830000  1.0
  N  N878  1  0.30297000  0.64020000  0.45330000  1.0
  N  N879  1  0.36540000  0.63260000  0.44630000  1.0
  N  N880  1  0.47776000  0.23580000  0.38300000  1.0
  N  N881  1  0.44580000  0.22980000  0.21800000  1.0
  N  N882  1  0.43140000  0.23620000  0.17390000  1.0
  N  N883  1  0.35782000  0.27420000  0.01770000  1.0
  N  N884  1  0.31384000  0.73710000  0.38530000  1.0
  N  N885  1  0.28100000  0.73340000  0.22020000  1.0
  N  N886  1  0.26670000  0.74030000  0.17620000  1.0
  N  N887  1  0.19210000  0.77660000  0.01990000  1.0
  N  N888  1  0.96990000  0.17050000  0.95590000  1.0
  N  N889  1  0.02997000  0.17570000  0.94470000  1.0
  N  N890  1  0.02858000  0.36660000  0.94510000  1.0
  N  N891  1  0.96609000  0.36160000  0.95110000  1.0
  N  N892  1  0.86647000  0.67440000  0.94640000  1.0
  N  N893  1  0.80655000  0.67170000  0.95830000  1.0
  N  N894  1  0.80297000  0.85980000  0.95330000  1.0
  N  N895  1  0.86540000  0.86740000  0.94630000  1.0
  N  N896  1  0.97776000  0.26420000  0.88300000  1.0
  N  N897  1  0.94580000  0.27020000  0.71800000  1.0
  N  N898  1  0.93140000  0.26380000  0.67390000  1.0
  N  N899  1  0.85782000  0.22580000  0.51770000  1.0
  N  N900  1  0.81384000  0.76290000  0.88530000  1.0
  N  N901  1  0.78100000  0.76660000  0.72020000  1.0
  N  N902  1  0.76670000  0.75970000  0.67620000  1.0
  N  N903  1  0.69210000  0.72340000  0.51990000  1.0
  N  N904  1  0.46990000  0.67050000  0.95590000  1.0
  N  N905  1  0.52997000  0.67570000  0.94470000  1.0
  N  N906  1  0.52858000  0.86660000  0.94510000  1.0
  N  N907  1  0.46609000  0.86160000  0.95110000  1.0
  N  N908  1  0.36647000  0.17440000  0.94640000  1.0
  N  N909  1  0.30655000  0.17170000  0.95830000  1.0
  N  N910  1  0.30297000  0.35980000  0.95330000  1.0
  N  N911  1  0.36540000  0.36740000  0.94630000  1.0
  N  N912  1  0.47776000  0.76420000  0.88300000  1.0
  N  N913  1  0.44580000  0.77020000  0.71800000  1.0
  N  N914  1  0.43140000  0.76380000  0.67390000  1.0
  N  N915  1  0.35782000  0.72580000  0.51770000  1.0
  N  N916  1  0.31384000  0.26290000  0.88530000  1.0
  N  N917  1  0.28100000  0.26660000  0.72020000  1.0
  N  N918  1  0.26670000  0.25970000  0.67620000  1.0
  N  N919  1  0.19210000  0.22340000  0.51990000  1.0
  N  N920  1  0.13190000  0.13350000  0.45240000  1.0
  N  N921  1  0.13620000  0.33540000  0.45870000  1.0
  N  N922  1  0.20020000  0.33150000  0.44390000  1.0
  N  N923  1  0.19910000  0.12420000  0.44430000  1.0
  N  N924  1  0.14382000  0.23600000  0.38040000  1.0
  N  N925  1  0.11090000  0.23130000  0.21550000  1.0
  N  N926  1  0.09620000  0.23870000  0.17160000  1.0
  N  N927  1  0.02120000  0.27420000  0.01520000  1.0
  N  N928  1  0.63190000  0.63350000  0.45240000  1.0
  N  N929  1  0.63620000  0.83540000  0.45870000  1.0
  N  N930  1  0.70020000  0.83150000  0.44390000  1.0
  N  N931  1  0.69910000  0.62420000  0.44430000  1.0
  N  N932  1  0.64382000  0.73600000  0.38040000  1.0
  N  N933  1  0.61090000  0.73130000  0.21550000  1.0
  N  N934  1  0.59620000  0.73870000  0.17160000  1.0
  N  N935  1  0.52120000  0.77420000  0.01520000  1.0
