# generated using pymatgen
data_ScH6(C2O)6
_symmetry_space_group_name_H-M   'P 1'
_cell_length_a   8.88240000
_cell_length_b   61.24800000
_cell_length_c   33.68900000
_cell_angle_alpha   90.00000000
_cell_angle_beta   90.00000000
_cell_angle_gamma   90.00000000
_symmetry_Int_Tables_number   1
_chemical_formula_structural   ScH6(C2O)6
_chemical_formula_sum   'Sc48 H288 C576 O288'
_cell_volume   18327.80090465
_cell_formula_units_Z   48
loop_
 _symmetry_equiv_pos_site_id
 _symmetry_equiv_pos_as_xyz
  1  'x, y, z'
loop_
 _atom_site_type_symbol
 _atom_site_label
 _atom_site_symmetry_multiplicity
 _atom_site_fract_x
 _atom_site_fract_y
 _atom_site_fract_z
 _atom_site_occupancy
  Sc  Sc0  1  0.25410000  0.58330000  0.42633000  1.0
  Sc  Sc1  1  0.75100000  0.58330000  0.40467000  1.0
  Sc  Sc2  1  0.25410000  0.08330000  0.92633000  1.0
  Sc  Sc3  1  0.75100000  0.08330000  0.90467000  1.0
  Sc  Sc4  1  0.75410000  0.58330000  0.92633000  1.0
  Sc  Sc5  1  0.25100000  0.58330000  0.90467000  1.0
  Sc  Sc6  1  0.75410000  0.08330000  0.42633000  1.0
  Sc  Sc7  1  0.25100000  0.08330000  0.40467000  1.0
  Sc  Sc8  1  0.74590000  0.41670000  0.42633000  1.0
  Sc  Sc9  1  0.24900000  0.41670000  0.40467000  1.0
  Sc  Sc10  1  0.74590000  0.91670000  0.92633000  1.0
  Sc  Sc11  1  0.24900000  0.91670000  0.90467000  1.0
  Sc  Sc12  1  0.24590000  0.41670000  0.92633000  1.0
  Sc  Sc13  1  0.74900000  0.41670000  0.90467000  1.0
  Sc  Sc14  1  0.24590000  0.91670000  0.42633000  1.0
  Sc  Sc15  1  0.74900000  0.91670000  0.40467000  1.0
  Sc  Sc16  1  0.50410000  0.66666667  0.67633000  1.0
  Sc  Sc17  1  0.00100000  0.66666667  0.65467000  1.0
  Sc  Sc18  1  0.50410000  0.16670000  0.17633000  1.0
  Sc  Sc19  1  0.00100000  0.16670000  0.15467000  1.0
  Sc  Sc20  1  0.00410000  0.66666667  0.17633000  1.0
  Sc  Sc21  1  0.50100000  0.66666667  0.15467000  1.0
  Sc  Sc22  1  0.00410000  0.16670000  0.67633000  1.0
  Sc  Sc23  1  0.50100000  0.16670000  0.65467000  1.0
  Sc  Sc24  1  0.99590000  0.83330000  0.67633000  1.0
  Sc  Sc25  1  0.49900000  0.83330000  0.65467000  1.0
  Sc  Sc26  1  0.99590000  0.33333333  0.17633000  1.0
  Sc  Sc27  1  0.49900000  0.33333333  0.15467000  1.0
  Sc  Sc28  1  0.49590000  0.83330000  0.17633000  1.0
  Sc  Sc29  1  0.99900000  0.83330000  0.15467000  1.0
  Sc  Sc30  1  0.49590000  0.33333333  0.67633000  1.0
  Sc  Sc31  1  0.99900000  0.33333333  0.65467000  1.0
  Sc  Sc32  1  0.75000000  0.75000000  0.42626000  1.0
  Sc  Sc33  1  0.75000000  0.25000000  0.92626000  1.0
  Sc  Sc34  1  0.25000000  0.25000000  0.42626000  1.0
  Sc  Sc35  1  0.25000000  0.75000000  0.92626000  1.0
  Sc  Sc36  1  0.00000000  0.50000000  0.67626000  1.0
  Sc  Sc37  1  0.00000000  0.00000000  0.17626000  1.0
  Sc  Sc38  1  0.50000000  0.50000000  0.17626000  1.0
  Sc  Sc39  1  0.50000000  0.00000000  0.67626000  1.0
  Sc  Sc40  1  0.25000000  0.75000000  0.40465000  1.0
  Sc  Sc41  1  0.25000000  0.25000000  0.90465000  1.0
  Sc  Sc42  1  0.75000000  0.25000000  0.40465000  1.0
  Sc  Sc43  1  0.75000000  0.75000000  0.90465000  1.0
  Sc  Sc44  1  0.50000000  0.50000000  0.65465000  1.0
  Sc  Sc45  1  0.50000000  0.00000000  0.15465000  1.0
  Sc  Sc46  1  0.00000000  0.00000000  0.65465000  1.0
  Sc  Sc47  1  0.00000000  0.50000000  0.15465000  1.0
  H  H48  1  0.22760000  0.64710000  0.42400000  1.0
  H  H49  1  0.22960000  0.68490000  0.42090000  1.0
  H  H50  1  0.77800000  0.68560000  0.42780000  1.0
  H  H51  1  0.77600000  0.64780000  0.43090000  1.0
  H  H52  1  0.12530000  0.69420000  0.53950000  1.0
  H  H53  1  0.20940000  0.71530000  0.48680000  1.0
  H  H54  1  0.62780000  0.71450000  0.53210000  1.0
  H  H55  1  0.54370000  0.69340000  0.58490000  1.0
  H  H56  1  0.37930000  0.60790000  0.54110000  1.0
  H  H57  1  0.80510000  0.60590000  0.50090000  1.0
  H  H58  1  0.88440000  0.62540000  0.55610000  1.0
  H  H59  1  0.45860000  0.62750000  0.59620000  1.0
  H  H60  1  0.12560000  0.54920000  0.53040000  1.0
  H  H61  1  0.04340000  0.53120000  0.58690000  1.0
  H  H62  1  0.63040000  0.52560000  0.53930000  1.0
  H  H63  1  0.71260000  0.54360000  0.48280000  1.0
  H  H64  1  0.72270000  0.51920000  0.39520000  1.0
  H  H65  1  0.72720000  0.48150000  0.39810000  1.0
  H  H66  1  0.22760000  0.14710000  0.92400000  1.0
  H  H67  1  0.22960000  0.18490000  0.92090000  1.0
  H  H68  1  0.77800000  0.18560000  0.92780000  1.0
  H  H69  1  0.77600000  0.14780000  0.93090000  1.0
  H  H70  1  0.12530000  0.19420000  0.03950000  1.0
  H  H71  1  0.20940000  0.21530000  0.98680000  1.0
  H  H72  1  0.62780000  0.21450000  0.03210000  1.0
  H  H73  1  0.54370000  0.19340000  0.08490000  1.0
  H  H74  1  0.37930000  0.10790000  0.04110000  1.0
  H  H75  1  0.80510000  0.10590000  0.00090000  1.0
  H  H76  1  0.88440000  0.12540000  0.05610000  1.0
  H  H77  1  0.45860000  0.12750000  0.09620000  1.0
  H  H78  1  0.12560000  0.04920000  0.03040000  1.0
  H  H79  1  0.04340000  0.03120000  0.08690000  1.0
  H  H80  1  0.63040000  0.02560000  0.03930000  1.0
  H  H81  1  0.71260000  0.04360000  0.98280000  1.0
  H  H82  1  0.72270000  0.01920000  0.89520000  1.0
  H  H83  1  0.72720000  0.98150000  0.89810000  1.0
  H  H84  1  0.72760000  0.64710000  0.92400000  1.0
  H  H85  1  0.72960000  0.68490000  0.92090000  1.0
  H  H86  1  0.27800000  0.68560000  0.92780000  1.0
  H  H87  1  0.27600000  0.64780000  0.93090000  1.0
  H  H88  1  0.62530000  0.69420000  0.03950000  1.0
  H  H89  1  0.70940000  0.71530000  0.98680000  1.0
  H  H90  1  0.12780000  0.71450000  0.03210000  1.0
  H  H91  1  0.04370000  0.69340000  0.08490000  1.0
  H  H92  1  0.87930000  0.60790000  0.04110000  1.0
  H  H93  1  0.30510000  0.60590000  0.00090000  1.0
  H  H94  1  0.38440000  0.62540000  0.05610000  1.0
  H  H95  1  0.95860000  0.62750000  0.09620000  1.0
  H  H96  1  0.62560000  0.54920000  0.03040000  1.0
  H  H97  1  0.54340000  0.53120000  0.08690000  1.0
  H  H98  1  0.13040000  0.52560000  0.03930000  1.0
  H  H99  1  0.21260000  0.54360000  0.98280000  1.0
  H  H100  1  0.22270000  0.51920000  0.89520000  1.0
  H  H101  1  0.22720000  0.48150000  0.89810000  1.0
  H  H102  1  0.72760000  0.14710000  0.42400000  1.0
  H  H103  1  0.72960000  0.18490000  0.42090000  1.0
  H  H104  1  0.27800000  0.18560000  0.42780000  1.0
  H  H105  1  0.27600000  0.14780000  0.43090000  1.0
  H  H106  1  0.62530000  0.19420000  0.53950000  1.0
  H  H107  1  0.70940000  0.21530000  0.48680000  1.0
  H  H108  1  0.12780000  0.21450000  0.53210000  1.0
  H  H109  1  0.04370000  0.19340000  0.58490000  1.0
  H  H110  1  0.87930000  0.10790000  0.54110000  1.0
  H  H111  1  0.30510000  0.10590000  0.50090000  1.0
  H  H112  1  0.38440000  0.12540000  0.55610000  1.0
  H  H113  1  0.95860000  0.12750000  0.59620000  1.0
  H  H114  1  0.62560000  0.04920000  0.53040000  1.0
  H  H115  1  0.54340000  0.03120000  0.58690000  1.0
  H  H116  1  0.13040000  0.02560000  0.53930000  1.0
  H  H117  1  0.21260000  0.04360000  0.48280000  1.0
  H  H118  1  0.22270000  0.01920000  0.39520000  1.0
  H  H119  1  0.22720000  0.98150000  0.39810000  1.0
  H  H120  1  0.77240000  0.35290000  0.42400000  1.0
  H  H121  1  0.77040000  0.31510000  0.42090000  1.0
  H  H122  1  0.22200000  0.31440000  0.42780000  1.0
  H  H123  1  0.22400000  0.35220000  0.43090000  1.0
  H  H124  1  0.87470000  0.30580000  0.53950000  1.0
  H  H125  1  0.79060000  0.28470000  0.48680000  1.0
  H  H126  1  0.37220000  0.28550000  0.53210000  1.0
  H  H127  1  0.45630000  0.30660000  0.58490000  1.0
  H  H128  1  0.62070000  0.39210000  0.54110000  1.0
  H  H129  1  0.19490000  0.39410000  0.50090000  1.0
  H  H130  1  0.11560000  0.37460000  0.55610000  1.0
  H  H131  1  0.54140000  0.37250000  0.59620000  1.0
  H  H132  1  0.87440000  0.45080000  0.53040000  1.0
  H  H133  1  0.95660000  0.46880000  0.58690000  1.0
  H  H134  1  0.36960000  0.47440000  0.53930000  1.0
  H  H135  1  0.28740000  0.45640000  0.48280000  1.0
  H  H136  1  0.27730000  0.48080000  0.39520000  1.0
  H  H137  1  0.27280000  0.51850000  0.39810000  1.0
  H  H138  1  0.77240000  0.85290000  0.92400000  1.0
  H  H139  1  0.77040000  0.81510000  0.92090000  1.0
  H  H140  1  0.22200000  0.81440000  0.92780000  1.0
  H  H141  1  0.22400000  0.85220000  0.93090000  1.0
  H  H142  1  0.87470000  0.80580000  0.03950000  1.0
  H  H143  1  0.79060000  0.78470000  0.98680000  1.0
  H  H144  1  0.37220000  0.78550000  0.03210000  1.0
  H  H145  1  0.45630000  0.80660000  0.08490000  1.0
  H  H146  1  0.62070000  0.89210000  0.04110000  1.0
  H  H147  1  0.19490000  0.89410000  0.00090000  1.0
  H  H148  1  0.11560000  0.87460000  0.05610000  1.0
  H  H149  1  0.54140000  0.87250000  0.09620000  1.0
  H  H150  1  0.87440000  0.95080000  0.03040000  1.0
  H  H151  1  0.95660000  0.96880000  0.08690000  1.0
  H  H152  1  0.36960000  0.97440000  0.03930000  1.0
  H  H153  1  0.28740000  0.95640000  0.98280000  1.0
  H  H154  1  0.27730000  0.98080000  0.89520000  1.0
  H  H155  1  0.27280000  0.01850000  0.89810000  1.0
  H  H156  1  0.27240000  0.35290000  0.92400000  1.0
  H  H157  1  0.27040000  0.31510000  0.92090000  1.0
  H  H158  1  0.72200000  0.31440000  0.92780000  1.0
  H  H159  1  0.72400000  0.35220000  0.93090000  1.0
  H  H160  1  0.37470000  0.30580000  0.03950000  1.0
  H  H161  1  0.29060000  0.28470000  0.98680000  1.0
  H  H162  1  0.87220000  0.28550000  0.03210000  1.0
  H  H163  1  0.95630000  0.30660000  0.08490000  1.0
  H  H164  1  0.12070000  0.39210000  0.04110000  1.0
  H  H165  1  0.69490000  0.39410000  0.00090000  1.0
  H  H166  1  0.61560000  0.37460000  0.05610000  1.0
  H  H167  1  0.04140000  0.37250000  0.09620000  1.0
  H  H168  1  0.37440000  0.45080000  0.03040000  1.0
  H  H169  1  0.45660000  0.46880000  0.08690000  1.0
  H  H170  1  0.86960000  0.47440000  0.03930000  1.0
  H  H171  1  0.78740000  0.45640000  0.98280000  1.0
  H  H172  1  0.77730000  0.48080000  0.89520000  1.0
  H  H173  1  0.77280000  0.51850000  0.89810000  1.0
  H  H174  1  0.27240000  0.85290000  0.42400000  1.0
  H  H175  1  0.27040000  0.81510000  0.42090000  1.0
  H  H176  1  0.72200000  0.81440000  0.42780000  1.0
  H  H177  1  0.72400000  0.85220000  0.43090000  1.0
  H  H178  1  0.37470000  0.80580000  0.53950000  1.0
  H  H179  1  0.29060000  0.78470000  0.48680000  1.0
  H  H180  1  0.87220000  0.78550000  0.53210000  1.0
  H  H181  1  0.95630000  0.80660000  0.58490000  1.0
  H  H182  1  0.12070000  0.89210000  0.54110000  1.0
  H  H183  1  0.69490000  0.89410000  0.50090000  1.0
  H  H184  1  0.61560000  0.87460000  0.55610000  1.0
  H  H185  1  0.04140000  0.87250000  0.59620000  1.0
  H  H186  1  0.37440000  0.95080000  0.53040000  1.0
  H  H187  1  0.45660000  0.96880000  0.58690000  1.0
  H  H188  1  0.86960000  0.97440000  0.53930000  1.0
  H  H189  1  0.78740000  0.95640000  0.48280000  1.0
  H  H190  1  0.77730000  0.98080000  0.39520000  1.0
  H  H191  1  0.77280000  0.01850000  0.39810000  1.0
  H  H192  1  0.47760000  0.60290000  0.67400000  1.0
  H  H193  1  0.47960000  0.56510000  0.67090000  1.0
  H  H194  1  0.02800000  0.56440000  0.67780000  1.0
  H  H195  1  0.02600000  0.60220000  0.68090000  1.0
  H  H196  1  0.37530000  0.55580000  0.78950000  1.0
  H  H197  1  0.45940000  0.53470000  0.73680000  1.0
  H  H198  1  0.87780000  0.53550000  0.78210000  1.0
  H  H199  1  0.79370000  0.55660000  0.83490000  1.0
  H  H200  1  0.62930000  0.64210000  0.79110000  1.0
  H  H201  1  0.05510000  0.64410000  0.75090000  1.0
  H  H202  1  0.13440000  0.62460000  0.80610000  1.0
  H  H203  1  0.70860000  0.62250000  0.84620000  1.0
  H  H204  1  0.37560000  0.70080000  0.78040000  1.0
  H  H205  1  0.29340000  0.71880000  0.83690000  1.0
  H  H206  1  0.88040000  0.72440000  0.78930000  1.0
  H  H207  1  0.96260000  0.70640000  0.73280000  1.0
  H  H208  1  0.97270000  0.73080000  0.64520000  1.0
  H  H209  1  0.97720000  0.76850000  0.64810000  1.0
  H  H210  1  0.47760000  0.10290000  0.17400000  1.0
  H  H211  1  0.47960000  0.06510000  0.17090000  1.0
  H  H212  1  0.02800000  0.06440000  0.17780000  1.0
  H  H213  1  0.02600000  0.10220000  0.18090000  1.0
  H  H214  1  0.37530000  0.05580000  0.28950000  1.0
  H  H215  1  0.45940000  0.03470000  0.23680000  1.0
  H  H216  1  0.87780000  0.03550000  0.28210000  1.0
  H  H217  1  0.79370000  0.05660000  0.33490000  1.0
  H  H218  1  0.62930000  0.14210000  0.29110000  1.0
  H  H219  1  0.05510000  0.14410000  0.25090000  1.0
  H  H220  1  0.13440000  0.12460000  0.30610000  1.0
  H  H221  1  0.70860000  0.12250000  0.34620000  1.0
  H  H222  1  0.37560000  0.20080000  0.28040000  1.0
  H  H223  1  0.29340000  0.21880000  0.33690000  1.0
  H  H224  1  0.88040000  0.22440000  0.28930000  1.0
  H  H225  1  0.96260000  0.20640000  0.23280000  1.0
  H  H226  1  0.97270000  0.23080000  0.14520000  1.0
  H  H227  1  0.97720000  0.26850000  0.14810000  1.0
  H  H228  1  0.97760000  0.60290000  0.17400000  1.0
  H  H229  1  0.97960000  0.56510000  0.17090000  1.0
  H  H230  1  0.52800000  0.56440000  0.17780000  1.0
  H  H231  1  0.52600000  0.60220000  0.18090000  1.0
  H  H232  1  0.87530000  0.55580000  0.28950000  1.0
  H  H233  1  0.95940000  0.53470000  0.23680000  1.0
  H  H234  1  0.37780000  0.53550000  0.28210000  1.0
  H  H235  1  0.29370000  0.55660000  0.33490000  1.0
  H  H236  1  0.12930000  0.64210000  0.29110000  1.0
  H  H237  1  0.55510000  0.64410000  0.25090000  1.0
  H  H238  1  0.63440000  0.62460000  0.30610000  1.0
  H  H239  1  0.20860000  0.62250000  0.34620000  1.0
  H  H240  1  0.87560000  0.70080000  0.28040000  1.0
  H  H241  1  0.79340000  0.71880000  0.33690000  1.0
  H  H242  1  0.38040000  0.72440000  0.28930000  1.0
  H  H243  1  0.46260000  0.70640000  0.23280000  1.0
  H  H244  1  0.47270000  0.73080000  0.14520000  1.0
  H  H245  1  0.47720000  0.76850000  0.14810000  1.0
  H  H246  1  0.97760000  0.10290000  0.67400000  1.0
  H  H247  1  0.97960000  0.06510000  0.67090000  1.0
  H  H248  1  0.52800000  0.06440000  0.67780000  1.0
  H  H249  1  0.52600000  0.10220000  0.68090000  1.0
  H  H250  1  0.87530000  0.05580000  0.78950000  1.0
  H  H251  1  0.95940000  0.03470000  0.73680000  1.0
  H  H252  1  0.37780000  0.03550000  0.78210000  1.0
  H  H253  1  0.29370000  0.05660000  0.83490000  1.0
  H  H254  1  0.12930000  0.14210000  0.79110000  1.0
  H  H255  1  0.55510000  0.14410000  0.75090000  1.0
  H  H256  1  0.63440000  0.12460000  0.80610000  1.0
  H  H257  1  0.20860000  0.12250000  0.84620000  1.0
  H  H258  1  0.87560000  0.20080000  0.78040000  1.0
  H  H259  1  0.79340000  0.21880000  0.83690000  1.0
  H  H260  1  0.38040000  0.22440000  0.78930000  1.0
  H  H261  1  0.46260000  0.20640000  0.73280000  1.0
  H  H262  1  0.47270000  0.23080000  0.64520000  1.0
  H  H263  1  0.47720000  0.26850000  0.64810000  1.0
  H  H264  1  0.02240000  0.89710000  0.67400000  1.0
  H  H265  1  0.02040000  0.93490000  0.67090000  1.0
  H  H266  1  0.47200000  0.93560000  0.67780000  1.0
  H  H267  1  0.47400000  0.89780000  0.68090000  1.0
  H  H268  1  0.12470000  0.94420000  0.78950000  1.0
  H  H269  1  0.04060000  0.96530000  0.73680000  1.0
  H  H270  1  0.62220000  0.96450000  0.78210000  1.0
  H  H271  1  0.70630000  0.94340000  0.83490000  1.0
  H  H272  1  0.87070000  0.85790000  0.79110000  1.0
  H  H273  1  0.44490000  0.85590000  0.75090000  1.0
  H  H274  1  0.36560000  0.87540000  0.80610000  1.0
  H  H275  1  0.79140000  0.87750000  0.84620000  1.0
  H  H276  1  0.12440000  0.79920000  0.78040000  1.0
  H  H277  1  0.20660000  0.78120000  0.83690000  1.0
  H  H278  1  0.61960000  0.77560000  0.78930000  1.0
  H  H279  1  0.53740000  0.79360000  0.73280000  1.0
  H  H280  1  0.52730000  0.76920000  0.64520000  1.0
  H  H281  1  0.52280000  0.73150000  0.64810000  1.0
  H  H282  1  0.02240000  0.39710000  0.17400000  1.0
  H  H283  1  0.02040000  0.43490000  0.17090000  1.0
  H  H284  1  0.47200000  0.43560000  0.17780000  1.0
  H  H285  1  0.47400000  0.39780000  0.18090000  1.0
  H  H286  1  0.12470000  0.44420000  0.28950000  1.0
  H  H287  1  0.04060000  0.46530000  0.23680000  1.0
  H  H288  1  0.62220000  0.46450000  0.28210000  1.0
  H  H289  1  0.70630000  0.44340000  0.33490000  1.0
  H  H290  1  0.87070000  0.35790000  0.29110000  1.0
  H  H291  1  0.44490000  0.35590000  0.25090000  1.0
  H  H292  1  0.36560000  0.37540000  0.30610000  1.0
  H  H293  1  0.79140000  0.37750000  0.34620000  1.0
  H  H294  1  0.12440000  0.29920000  0.28040000  1.0
  H  H295  1  0.20660000  0.28120000  0.33690000  1.0
  H  H296  1  0.61960000  0.27560000  0.28930000  1.0
  H  H297  1  0.53740000  0.29360000  0.23280000  1.0
  H  H298  1  0.52730000  0.26920000  0.14520000  1.0
  H  H299  1  0.52280000  0.23150000  0.14810000  1.0
  H  H300  1  0.52240000  0.89710000  0.17400000  1.0
  H  H301  1  0.52040000  0.93490000  0.17090000  1.0
  H  H302  1  0.97200000  0.93560000  0.17780000  1.0
  H  H303  1  0.97400000  0.89780000  0.18090000  1.0
  H  H304  1  0.62470000  0.94420000  0.28950000  1.0
  H  H305  1  0.54060000  0.96530000  0.23680000  1.0
  H  H306  1  0.12220000  0.96450000  0.28210000  1.0
  H  H307  1  0.20630000  0.94340000  0.33490000  1.0
  H  H308  1  0.37070000  0.85790000  0.29110000  1.0
  H  H309  1  0.94490000  0.85590000  0.25090000  1.0
  H  H310  1  0.86560000  0.87540000  0.30610000  1.0
  H  H311  1  0.29140000  0.87750000  0.34620000  1.0
  H  H312  1  0.62440000  0.79920000  0.28040000  1.0
  H  H313  1  0.70660000  0.78120000  0.33690000  1.0
  H  H314  1  0.11960000  0.77560000  0.28930000  1.0
  H  H315  1  0.03740000  0.79360000  0.23280000  1.0
  H  H316  1  0.02730000  0.76920000  0.14520000  1.0
  H  H317  1  0.02280000  0.73150000  0.14810000  1.0
  H  H318  1  0.52240000  0.39710000  0.67400000  1.0
  H  H319  1  0.52040000  0.43490000  0.67090000  1.0
  H  H320  1  0.97200000  0.43560000  0.67780000  1.0
  H  H321  1  0.97400000  0.39780000  0.68090000  1.0
  H  H322  1  0.62470000  0.44420000  0.78950000  1.0
  H  H323  1  0.54060000  0.46530000  0.73680000  1.0
  H  H324  1  0.12220000  0.46450000  0.78210000  1.0
  H  H325  1  0.20630000  0.44340000  0.83490000  1.0
  H  H326  1  0.37070000  0.35790000  0.79110000  1.0
  H  H327  1  0.94490000  0.35590000  0.75090000  1.0
  H  H328  1  0.86560000  0.37540000  0.80610000  1.0
  H  H329  1  0.29140000  0.37750000  0.84620000  1.0
  H  H330  1  0.62440000  0.29920000  0.78040000  1.0
  H  H331  1  0.70660000  0.28120000  0.83690000  1.0
  H  H332  1  0.11960000  0.27560000  0.78930000  1.0
  H  H333  1  0.03740000  0.29360000  0.73280000  1.0
  H  H334  1  0.02730000  0.26920000  0.64520000  1.0
  H  H335  1  0.02280000  0.23150000  0.64810000  1.0
  C  C336  1  0.00200000  0.61960000  0.42800000  1.0
  C  C337  1  0.13750000  0.65481000  0.42480000  1.0
  C  C338  1  0.13870000  0.67748000  0.42290000  1.0
  C  C339  1  0.00400000  0.68902000  0.42400000  1.0
  C  C340  1  0.86810000  0.67789000  0.42700000  1.0
  C  C341  1  0.86690000  0.65522000  0.42890000  1.0
  C  C342  1  0.00160000  0.64368000  0.42780000  1.0
  C  C343  1  0.00100000  0.71280000  0.41780000  1.0
  C  C344  1  0.48000000  0.72970000  0.46990000  1.0
  C  C345  1  0.32620000  0.69173000  0.56740000  1.0
  C  C346  1  0.22600000  0.69828000  0.53800000  1.0
  C  C347  1  0.27640000  0.71092000  0.50640000  1.0
  C  C348  1  0.42690000  0.71700000  0.50420000  1.0
  C  C349  1  0.52710000  0.71045000  0.53360000  1.0
  C  C350  1  0.47670000  0.69782000  0.56520000  1.0
  C  C351  1  0.27300000  0.67880000  0.60290000  1.0
  C  C352  1  0.73600000  0.64170000  0.61640000  1.0
  C  C353  1  0.48060000  0.61141000  0.54410000  1.0
  C  C354  1  0.58440000  0.60494000  0.51550000  1.0
  C  C355  1  0.73570000  0.61019000  0.52000000  1.0
  C  C356  1  0.78310000  0.62191000  0.55310000  1.0
  C  C357  1  0.67930000  0.62838000  0.58160000  1.0
  C  C358  1  0.52800000  0.62313000  0.57710000  1.0
  C  C359  1  0.52200000  0.59400000  0.47930000  1.0
  C  C360  1  0.97800000  0.55897000  0.46490000  1.0
  C  C361  1  0.02630000  0.54448000  0.53220000  1.0
  C  C362  1  0.97710000  0.53366000  0.56600000  1.0
  C  C363  1  0.82880000  0.52658000  0.56870000  1.0
  C  C364  1  0.72970000  0.53033000  0.53750000  1.0
  C  C365  1  0.77890000  0.54114000  0.50360000  1.0
  C  C366  1  0.92730000  0.54822000  0.50100000  1.0
  C  C367  1  0.77400000  0.51630000  0.60650000  1.0
  C  C368  1  0.49600000  0.54706000  0.39920000  1.0
  C  C369  1  0.49840000  0.52238000  0.39780000  1.0
  C  C370  1  0.63300000  0.51144000  0.39660000  1.0
  C  C371  1  0.63600000  0.48896000  0.39760000  1.0
  C  C372  1  0.00200000  0.11960000  0.92800000  1.0
  C  C373  1  0.13750000  0.15481000  0.92480000  1.0
  C  C374  1  0.13870000  0.17748000  0.92290000  1.0
  C  C375  1  0.00400000  0.18902000  0.92400000  1.0
  C  C376  1  0.86810000  0.17789000  0.92700000  1.0
  C  C377  1  0.86690000  0.15522000  0.92890000  1.0
  C  C378  1  0.00160000  0.14368000  0.92780000  1.0
  C  C379  1  0.00100000  0.21280000  0.91780000  1.0
  C  C380  1  0.48000000  0.22970000  0.96990000  1.0
  C  C381  1  0.32620000  0.19173000  0.06740000  1.0
  C  C382  1  0.22600000  0.19828000  0.03800000  1.0
  C  C383  1  0.27640000  0.21092000  0.00640000  1.0
  C  C384  1  0.42690000  0.21700000  0.00420000  1.0
  C  C385  1  0.52710000  0.21045000  0.03360000  1.0
  C  C386  1  0.47670000  0.19782000  0.06520000  1.0
  C  C387  1  0.27300000  0.17880000  0.10290000  1.0
  C  C388  1  0.73600000  0.14170000  0.11640000  1.0
  C  C389  1  0.48060000  0.11141000  0.04410000  1.0
  C  C390  1  0.58440000  0.10494000  0.01550000  1.0
  C  C391  1  0.73570000  0.11019000  0.02000000  1.0
  C  C392  1  0.78310000  0.12191000  0.05310000  1.0
  C  C393  1  0.67930000  0.12838000  0.08160000  1.0
  C  C394  1  0.52800000  0.12313000  0.07710000  1.0
  C  C395  1  0.52200000  0.09400000  0.97930000  1.0
  C  C396  1  0.97800000  0.05897000  0.96490000  1.0
  C  C397  1  0.02630000  0.04448000  0.03220000  1.0
  C  C398  1  0.97710000  0.03366000  0.06600000  1.0
  C  C399  1  0.82880000  0.02658000  0.06870000  1.0
  C  C400  1  0.72970000  0.03033000  0.03750000  1.0
  C  C401  1  0.77890000  0.04114000  0.00360000  1.0
  C  C402  1  0.92730000  0.04822000  0.00100000  1.0
  C  C403  1  0.77400000  0.01630000  0.10650000  1.0
  C  C404  1  0.49600000  0.04706000  0.89920000  1.0
  C  C405  1  0.49840000  0.02238000  0.89780000  1.0
  C  C406  1  0.63300000  0.01144000  0.89660000  1.0
  C  C407  1  0.63600000  0.98896000  0.89760000  1.0
  C  C408  1  0.50200000  0.61960000  0.92800000  1.0
  C  C409  1  0.63750000  0.65481000  0.92480000  1.0
  C  C410  1  0.63870000  0.67748000  0.92290000  1.0
  C  C411  1  0.50400000  0.68902000  0.92400000  1.0
  C  C412  1  0.36810000  0.67789000  0.92700000  1.0
  C  C413  1  0.36690000  0.65522000  0.92890000  1.0
  C  C414  1  0.50160000  0.64368000  0.92780000  1.0
  C  C415  1  0.50100000  0.71280000  0.91780000  1.0
  C  C416  1  0.98000000  0.72970000  0.96990000  1.0
  C  C417  1  0.82620000  0.69173000  0.06740000  1.0
  C  C418  1  0.72600000  0.69828000  0.03800000  1.0
  C  C419  1  0.77640000  0.71092000  0.00640000  1.0
  C  C420  1  0.92690000  0.71700000  0.00420000  1.0
  C  C421  1  0.02710000  0.71045000  0.03360000  1.0
  C  C422  1  0.97670000  0.69782000  0.06520000  1.0
  C  C423  1  0.77300000  0.67880000  0.10290000  1.0
  C  C424  1  0.23600000  0.64170000  0.11640000  1.0
  C  C425  1  0.98060000  0.61141000  0.04410000  1.0
  C  C426  1  0.08440000  0.60494000  0.01550000  1.0
  C  C427  1  0.23570000  0.61019000  0.02000000  1.0
  C  C428  1  0.28310000  0.62191000  0.05310000  1.0
  C  C429  1  0.17930000  0.62838000  0.08160000  1.0
  C  C430  1  0.02800000  0.62313000  0.07710000  1.0
  C  C431  1  0.02200000  0.59400000  0.97930000  1.0
  C  C432  1  0.47800000  0.55897000  0.96490000  1.0
  C  C433  1  0.52630000  0.54448000  0.03220000  1.0
  C  C434  1  0.47710000  0.53366000  0.06600000  1.0
  C  C435  1  0.32880000  0.52658000  0.06870000  1.0
  C  C436  1  0.22970000  0.53033000  0.03750000  1.0
  C  C437  1  0.27890000  0.54114000  0.00360000  1.0
  C  C438  1  0.42730000  0.54822000  0.00100000  1.0
  C  C439  1  0.27400000  0.51630000  0.10650000  1.0
  C  C440  1  0.99600000  0.54706000  0.89920000  1.0
  C  C441  1  0.99840000  0.52238000  0.89780000  1.0
  C  C442  1  0.13300000  0.51144000  0.89660000  1.0
  C  C443  1  0.13600000  0.48896000  0.89760000  1.0
  C  C444  1  0.50200000  0.11960000  0.42800000  1.0
  C  C445  1  0.63750000  0.15481000  0.42480000  1.0
  C  C446  1  0.63870000  0.17748000  0.42290000  1.0
  C  C447  1  0.50400000  0.18902000  0.42400000  1.0
  C  C448  1  0.36810000  0.17789000  0.42700000  1.0
  C  C449  1  0.36690000  0.15522000  0.42890000  1.0
  C  C450  1  0.50160000  0.14368000  0.42780000  1.0
  C  C451  1  0.50100000  0.21280000  0.41780000  1.0
  C  C452  1  0.98000000  0.22970000  0.46990000  1.0
  C  C453  1  0.82620000  0.19173000  0.56740000  1.0
  C  C454  1  0.72600000  0.19828000  0.53800000  1.0
  C  C455  1  0.77640000  0.21092000  0.50640000  1.0
  C  C456  1  0.92690000  0.21700000  0.50420000  1.0
  C  C457  1  0.02710000  0.21045000  0.53360000  1.0
  C  C458  1  0.97670000  0.19782000  0.56520000  1.0
  C  C459  1  0.77300000  0.17880000  0.60290000  1.0
  C  C460  1  0.23600000  0.14170000  0.61640000  1.0
  C  C461  1  0.98060000  0.11141000  0.54410000  1.0
  C  C462  1  0.08440000  0.10494000  0.51550000  1.0
  C  C463  1  0.23570000  0.11019000  0.52000000  1.0
  C  C464  1  0.28310000  0.12191000  0.55310000  1.0
  C  C465  1  0.17930000  0.12838000  0.58160000  1.0
  C  C466  1  0.02800000  0.12313000  0.57710000  1.0
  C  C467  1  0.02200000  0.09400000  0.47930000  1.0
  C  C468  1  0.47800000  0.05897000  0.46490000  1.0
  C  C469  1  0.52630000  0.04448000  0.53220000  1.0
  C  C470  1  0.47710000  0.03366000  0.56600000  1.0
  C  C471  1  0.32880000  0.02658000  0.56870000  1.0
  C  C472  1  0.22970000  0.03033000  0.53750000  1.0
  C  C473  1  0.27890000  0.04114000  0.50360000  1.0
  C  C474  1  0.42730000  0.04822000  0.50100000  1.0
  C  C475  1  0.27400000  0.01630000  0.60650000  1.0
  C  C476  1  0.99600000  0.04706000  0.39920000  1.0
  C  C477  1  0.99840000  0.02238000  0.39780000  1.0
  C  C478  1  0.13300000  0.01144000  0.39660000  1.0
  C  C479  1  0.13600000  0.98896000  0.39760000  1.0
  C  C480  1  0.99800000  0.38040000  0.42800000  1.0
  C  C481  1  0.86250000  0.34519000  0.42480000  1.0
  C  C482  1  0.86130000  0.32252000  0.42290000  1.0
  C  C483  1  0.99600000  0.31098000  0.42400000  1.0
  C  C484  1  0.13190000  0.32211000  0.42700000  1.0
  C  C485  1  0.13310000  0.34478000  0.42890000  1.0
  C  C486  1  0.99840000  0.35632000  0.42780000  1.0
  C  C487  1  0.99900000  0.28720000  0.41780000  1.0
  C  C488  1  0.52000000  0.27030000  0.46990000  1.0
  C  C489  1  0.67380000  0.30827000  0.56740000  1.0
  C  C490  1  0.77400000  0.30172000  0.53800000  1.0
  C  C491  1  0.72360000  0.28908000  0.50640000  1.0
  C  C492  1  0.57310000  0.28300000  0.50420000  1.0
  C  C493  1  0.47290000  0.28955000  0.53360000  1.0
  C  C494  1  0.52330000  0.30218000  0.56520000  1.0
  C  C495  1  0.72700000  0.32120000  0.60290000  1.0
  C  C496  1  0.26400000  0.35830000  0.61640000  1.0
  C  C497  1  0.51940000  0.38859000  0.54410000  1.0
  C  C498  1  0.41560000  0.39506000  0.51550000  1.0
  C  C499  1  0.26430000  0.38981000  0.52000000  1.0
  C  C500  1  0.21690000  0.37809000  0.55310000  1.0
  C  C501  1  0.32070000  0.37162000  0.58160000  1.0
  C  C502  1  0.47200000  0.37687000  0.57710000  1.0
  C  C503  1  0.47800000  0.40600000  0.47930000  1.0
  C  C504  1  0.02200000  0.44103000  0.46490000  1.0
  C  C505  1  0.97370000  0.45552000  0.53220000  1.0
  C  C506  1  0.02290000  0.46634000  0.56600000  1.0
  C  C507  1  0.17120000  0.47342000  0.56870000  1.0
  C  C508  1  0.27030000  0.46967000  0.53750000  1.0
  C  C509  1  0.22110000  0.45886000  0.50360000  1.0
  C  C510  1  0.07270000  0.45178000  0.50100000  1.0
  C  C511  1  0.22600000  0.48370000  0.60650000  1.0
  C  C512  1  0.50400000  0.45294000  0.39920000  1.0
  C  C513  1  0.50160000  0.47762000  0.39780000  1.0
  C  C514  1  0.36700000  0.48856000  0.39660000  1.0
  C  C515  1  0.36400000  0.51104000  0.39760000  1.0
  C  C516  1  0.99800000  0.88040000  0.92800000  1.0
  C  C517  1  0.86250000  0.84519000  0.92480000  1.0
  C  C518  1  0.86130000  0.82252000  0.92290000  1.0
  C  C519  1  0.99600000  0.81098000  0.92400000  1.0
  C  C520  1  0.13190000  0.82211000  0.92700000  1.0
  C  C521  1  0.13310000  0.84478000  0.92890000  1.0
  C  C522  1  0.99840000  0.85632000  0.92780000  1.0
  C  C523  1  0.99900000  0.78720000  0.91780000  1.0
  C  C524  1  0.52000000  0.77030000  0.96990000  1.0
  C  C525  1  0.67380000  0.80827000  0.06740000  1.0
  C  C526  1  0.77400000  0.80172000  0.03800000  1.0
  C  C527  1  0.72360000  0.78908000  0.00640000  1.0
  C  C528  1  0.57310000  0.78300000  0.00420000  1.0
  C  C529  1  0.47290000  0.78955000  0.03360000  1.0
  C  C530  1  0.52330000  0.80218000  0.06520000  1.0
  C  C531  1  0.72700000  0.82120000  0.10290000  1.0
  C  C532  1  0.26400000  0.85830000  0.11640000  1.0
  C  C533  1  0.51940000  0.88859000  0.04410000  1.0
  C  C534  1  0.41560000  0.89506000  0.01550000  1.0
  C  C535  1  0.26430000  0.88981000  0.02000000  1.0
  C  C536  1  0.21690000  0.87809000  0.05310000  1.0
  C  C537  1  0.32070000  0.87162000  0.08160000  1.0
  C  C538  1  0.47200000  0.87687000  0.07710000  1.0
  C  C539  1  0.47800000  0.90600000  0.97930000  1.0
  C  C540  1  0.02200000  0.94103000  0.96490000  1.0
  C  C541  1  0.97370000  0.95552000  0.03220000  1.0
  C  C542  1  0.02290000  0.96634000  0.06600000  1.0
  C  C543  1  0.17120000  0.97342000  0.06870000  1.0
  C  C544  1  0.27030000  0.96967000  0.03750000  1.0
  C  C545  1  0.22110000  0.95886000  0.00360000  1.0
  C  C546  1  0.07270000  0.95178000  0.00100000  1.0
  C  C547  1  0.22600000  0.98370000  0.10650000  1.0
  C  C548  1  0.50400000  0.95294000  0.89920000  1.0
  C  C549  1  0.50160000  0.97762000  0.89780000  1.0
  C  C550  1  0.36700000  0.98856000  0.89660000  1.0
  C  C551  1  0.36400000  0.01104000  0.89760000  1.0
  C  C552  1  0.49800000  0.38040000  0.92800000  1.0
  C  C553  1  0.36250000  0.34519000  0.92480000  1.0
  C  C554  1  0.36130000  0.32252000  0.92290000  1.0
  C  C555  1  0.49600000  0.31098000  0.92400000  1.0
  C  C556  1  0.63190000  0.32211000  0.92700000  1.0
  C  C557  1  0.63310000  0.34478000  0.92890000  1.0
  C  C558  1  0.49840000  0.35632000  0.92780000  1.0
  C  C559  1  0.49900000  0.28720000  0.91780000  1.0
  C  C560  1  0.02000000  0.27030000  0.96990000  1.0
  C  C561  1  0.17380000  0.30827000  0.06740000  1.0
  C  C562  1  0.27400000  0.30172000  0.03800000  1.0
  C  C563  1  0.22360000  0.28908000  0.00640000  1.0
  C  C564  1  0.07310000  0.28300000  0.00420000  1.0
  C  C565  1  0.97290000  0.28955000  0.03360000  1.0
  C  C566  1  0.02330000  0.30218000  0.06520000  1.0
  C  C567  1  0.22700000  0.32120000  0.10290000  1.0
  C  C568  1  0.76400000  0.35830000  0.11640000  1.0
  C  C569  1  0.01940000  0.38859000  0.04410000  1.0
  C  C570  1  0.91560000  0.39506000  0.01550000  1.0
  C  C571  1  0.76430000  0.38981000  0.02000000  1.0
  C  C572  1  0.71690000  0.37809000  0.05310000  1.0
  C  C573  1  0.82070000  0.37162000  0.08160000  1.0
  C  C574  1  0.97200000  0.37687000  0.07710000  1.0
  C  C575  1  0.97800000  0.40600000  0.97930000  1.0
  C  C576  1  0.52200000  0.44103000  0.96490000  1.0
  C  C577  1  0.47370000  0.45552000  0.03220000  1.0
  C  C578  1  0.52290000  0.46634000  0.06600000  1.0
  C  C579  1  0.67120000  0.47342000  0.06870000  1.0
  C  C580  1  0.77030000  0.46967000  0.03750000  1.0
  C  C581  1  0.72110000  0.45886000  0.00360000  1.0
  C  C582  1  0.57270000  0.45178000  0.00100000  1.0
  C  C583  1  0.72600000  0.48370000  0.10650000  1.0
  C  C584  1  0.00400000  0.45294000  0.89920000  1.0
  C  C585  1  0.00160000  0.47762000  0.89780000  1.0
  C  C586  1  0.86700000  0.48856000  0.89660000  1.0
  C  C587  1  0.86400000  0.51104000  0.89760000  1.0
  C  C588  1  0.49800000  0.88040000  0.42800000  1.0
  C  C589  1  0.36250000  0.84519000  0.42480000  1.0
  C  C590  1  0.36130000  0.82252000  0.42290000  1.0
  C  C591  1  0.49600000  0.81098000  0.42400000  1.0
  C  C592  1  0.63190000  0.82211000  0.42700000  1.0
  C  C593  1  0.63310000  0.84478000  0.42890000  1.0
  C  C594  1  0.49840000  0.85632000  0.42780000  1.0
  C  C595  1  0.49900000  0.78720000  0.41780000  1.0
  C  C596  1  0.02000000  0.77030000  0.46990000  1.0
  C  C597  1  0.17380000  0.80827000  0.56740000  1.0
  C  C598  1  0.27400000  0.80172000  0.53800000  1.0
  C  C599  1  0.22360000  0.78908000  0.50640000  1.0
  C  C600  1  0.07310000  0.78300000  0.50420000  1.0
  C  C601  1  0.97290000  0.78955000  0.53360000  1.0
  C  C602  1  0.02330000  0.80218000  0.56520000  1.0
  C  C603  1  0.22700000  0.82120000  0.60290000  1.0
  C  C604  1  0.76400000  0.85830000  0.61640000  1.0
  C  C605  1  0.01940000  0.88859000  0.54410000  1.0
  C  C606  1  0.91560000  0.89506000  0.51550000  1.0
  C  C607  1  0.76430000  0.88981000  0.52000000  1.0
  C  C608  1  0.71690000  0.87809000  0.55310000  1.0
  C  C609  1  0.82070000  0.87162000  0.58160000  1.0
  C  C610  1  0.97200000  0.87687000  0.57710000  1.0
  C  C611  1  0.97800000  0.90600000  0.47930000  1.0
  C  C612  1  0.52200000  0.94103000  0.46490000  1.0
  C  C613  1  0.47370000  0.95552000  0.53220000  1.0
  C  C614  1  0.52290000  0.96634000  0.56600000  1.0
  C  C615  1  0.67120000  0.97342000  0.56870000  1.0
  C  C616  1  0.77030000  0.96967000  0.53750000  1.0
  C  C617  1  0.72110000  0.95886000  0.50360000  1.0
  C  C618  1  0.57270000  0.95178000  0.50100000  1.0
  C  C619  1  0.72600000  0.98370000  0.60650000  1.0
  C  C620  1  0.00400000  0.95294000  0.39920000  1.0
  C  C621  1  0.00160000  0.97762000  0.39780000  1.0
  C  C622  1  0.86700000  0.98856000  0.39660000  1.0
  C  C623  1  0.86400000  0.01104000  0.39760000  1.0
  C  C624  1  0.25200000  0.63040000  0.67800000  1.0
  C  C625  1  0.38750000  0.59519000  0.67480000  1.0
  C  C626  1  0.38870000  0.57252000  0.67290000  1.0
  C  C627  1  0.25400000  0.56098000  0.67400000  1.0
  C  C628  1  0.11810000  0.57211000  0.67700000  1.0
  C  C629  1  0.11690000  0.59478000  0.67890000  1.0
  C  C630  1  0.25160000  0.60632000  0.67780000  1.0
  C  C631  1  0.25100000  0.53720000  0.66780000  1.0
  C  C632  1  0.73000000  0.52030000  0.71990000  1.0
  C  C633  1  0.57620000  0.55827000  0.81740000  1.0
  C  C634  1  0.47600000  0.55172000  0.78800000  1.0
  C  C635  1  0.52640000  0.53908000  0.75640000  1.0
  C  C636  1  0.67690000  0.53300000  0.75420000  1.0
  C  C637  1  0.77710000  0.53955000  0.78360000  1.0
  C  C638  1  0.72670000  0.55218000  0.81520000  1.0
  C  C639  1  0.52300000  0.57120000  0.85290000  1.0
  C  C640  1  0.98600000  0.60830000  0.86640000  1.0
  C  C641  1  0.73060000  0.63859000  0.79410000  1.0
  C  C642  1  0.83440000  0.64506000  0.76550000  1.0
  C  C643  1  0.98570000  0.63981000  0.77000000  1.0
  C  C644  1  0.03310000  0.62809000  0.80310000  1.0
  C  C645  1  0.92930000  0.62162000  0.83160000  1.0
  C  C646  1  0.77800000  0.62687000  0.82710000  1.0
  C  C647  1  0.77200000  0.65600000  0.72930000  1.0
  C  C648  1  0.22800000  0.69103000  0.71490000  1.0
  C  C649  1  0.27630000  0.70552000  0.78220000  1.0
  C  C650  1  0.22710000  0.71634000  0.81600000  1.0
  C  C651  1  0.07880000  0.72342000  0.81870000  1.0
  C  C652  1  0.97970000  0.71967000  0.78750000  1.0
  C  C653  1  0.02890000  0.70886000  0.75360000  1.0
  C  C654  1  0.17730000  0.70178000  0.75100000  1.0
  C  C655  1  0.02400000  0.73370000  0.85650000  1.0
  C  C656  1  0.74600000  0.70294000  0.64920000  1.0
  C  C657  1  0.74840000  0.72762000  0.64780000  1.0
  C  C658  1  0.88300000  0.73856000  0.64660000  1.0
  C  C659  1  0.88600000  0.76104000  0.64760000  1.0
  C  C660  1  0.25200000  0.13040000  0.17800000  1.0
  C  C661  1  0.38750000  0.09519000  0.17480000  1.0
  C  C662  1  0.38870000  0.07252000  0.17290000  1.0
  C  C663  1  0.25400000  0.06098000  0.17400000  1.0
  C  C664  1  0.11810000  0.07211000  0.17700000  1.0
  C  C665  1  0.11690000  0.09478000  0.17890000  1.0
  C  C666  1  0.25160000  0.10632000  0.17780000  1.0
  C  C667  1  0.25100000  0.03720000  0.16780000  1.0
  C  C668  1  0.73000000  0.02030000  0.21990000  1.0
  C  C669  1  0.57620000  0.05827000  0.31740000  1.0
  C  C670  1  0.47600000  0.05172000  0.28800000  1.0
  C  C671  1  0.52640000  0.03908000  0.25640000  1.0
  C  C672  1  0.67690000  0.03300000  0.25420000  1.0
  C  C673  1  0.77710000  0.03955000  0.28360000  1.0
  C  C674  1  0.72670000  0.05218000  0.31520000  1.0
  C  C675  1  0.52300000  0.07120000  0.35290000  1.0
  C  C676  1  0.98600000  0.10830000  0.36640000  1.0
  C  C677  1  0.73060000  0.13859000  0.29410000  1.0
  C  C678  1  0.83440000  0.14506000  0.26550000  1.0
  C  C679  1  0.98570000  0.13981000  0.27000000  1.0
  C  C680  1  0.03310000  0.12809000  0.30310000  1.0
  C  C681  1  0.92930000  0.12162000  0.33160000  1.0
  C  C682  1  0.77800000  0.12687000  0.32710000  1.0
  C  C683  1  0.77200000  0.15600000  0.22930000  1.0
  C  C684  1  0.22800000  0.19103000  0.21490000  1.0
  C  C685  1  0.27630000  0.20552000  0.28220000  1.0
  C  C686  1  0.22710000  0.21634000  0.31600000  1.0
  C  C687  1  0.07880000  0.22342000  0.31870000  1.0
  C  C688  1  0.97970000  0.21967000  0.28750000  1.0
  C  C689  1  0.02890000  0.20886000  0.25360000  1.0
  C  C690  1  0.17730000  0.20178000  0.25100000  1.0
  C  C691  1  0.02400000  0.23370000  0.35650000  1.0
  C  C692  1  0.74600000  0.20294000  0.14920000  1.0
  C  C693  1  0.74840000  0.22762000  0.14780000  1.0
  C  C694  1  0.88300000  0.23856000  0.14660000  1.0
  C  C695  1  0.88600000  0.26104000  0.14760000  1.0
  C  C696  1  0.75200000  0.63040000  0.17800000  1.0
  C  C697  1  0.88750000  0.59519000  0.17480000  1.0
  C  C698  1  0.88870000  0.57252000  0.17290000  1.0
  C  C699  1  0.75400000  0.56098000  0.17400000  1.0
  C  C700  1  0.61810000  0.57211000  0.17700000  1.0
  C  C701  1  0.61690000  0.59478000  0.17890000  1.0
  C  C702  1  0.75160000  0.60632000  0.17780000  1.0
  C  C703  1  0.75100000  0.53720000  0.16780000  1.0
  C  C704  1  0.23000000  0.52030000  0.21990000  1.0
  C  C705  1  0.07620000  0.55827000  0.31740000  1.0
  C  C706  1  0.97600000  0.55172000  0.28800000  1.0
  C  C707  1  0.02640000  0.53908000  0.25640000  1.0
  C  C708  1  0.17690000  0.53300000  0.25420000  1.0
  C  C709  1  0.27710000  0.53955000  0.28360000  1.0
  C  C710  1  0.22670000  0.55218000  0.31520000  1.0
  C  C711  1  0.02300000  0.57120000  0.35290000  1.0
  C  C712  1  0.48600000  0.60830000  0.36640000  1.0
  C  C713  1  0.23060000  0.63859000  0.29410000  1.0
  C  C714  1  0.33440000  0.64506000  0.26550000  1.0
  C  C715  1  0.48570000  0.63981000  0.27000000  1.0
  C  C716  1  0.53310000  0.62809000  0.30310000  1.0
  C  C717  1  0.42930000  0.62162000  0.33160000  1.0
  C  C718  1  0.27800000  0.62687000  0.32710000  1.0
  C  C719  1  0.27200000  0.65600000  0.22930000  1.0
  C  C720  1  0.72800000  0.69103000  0.21490000  1.0
  C  C721  1  0.77630000  0.70552000  0.28220000  1.0
  C  C722  1  0.72710000  0.71634000  0.31600000  1.0
  C  C723  1  0.57880000  0.72342000  0.31870000  1.0
  C  C724  1  0.47970000  0.71967000  0.28750000  1.0
  C  C725  1  0.52890000  0.70886000  0.25360000  1.0
  C  C726  1  0.67730000  0.70178000  0.25100000  1.0
  C  C727  1  0.52400000  0.73370000  0.35650000  1.0
  C  C728  1  0.24600000  0.70294000  0.14920000  1.0
  C  C729  1  0.24840000  0.72762000  0.14780000  1.0
  C  C730  1  0.38300000  0.73856000  0.14660000  1.0
  C  C731  1  0.38600000  0.76104000  0.14760000  1.0
  C  C732  1  0.75200000  0.13040000  0.67800000  1.0
  C  C733  1  0.88750000  0.09519000  0.67480000  1.0
  C  C734  1  0.88870000  0.07252000  0.67290000  1.0
  C  C735  1  0.75400000  0.06098000  0.67400000  1.0
  C  C736  1  0.61810000  0.07211000  0.67700000  1.0
  C  C737  1  0.61690000  0.09478000  0.67890000  1.0
  C  C738  1  0.75160000  0.10632000  0.67780000  1.0
  C  C739  1  0.75100000  0.03720000  0.66780000  1.0
  C  C740  1  0.23000000  0.02030000  0.71990000  1.0
  C  C741  1  0.07620000  0.05827000  0.81740000  1.0
  C  C742  1  0.97600000  0.05172000  0.78800000  1.0
  C  C743  1  0.02640000  0.03908000  0.75640000  1.0
  C  C744  1  0.17690000  0.03300000  0.75420000  1.0
  C  C745  1  0.27710000  0.03955000  0.78360000  1.0
  C  C746  1  0.22670000  0.05218000  0.81520000  1.0
  C  C747  1  0.02300000  0.07120000  0.85290000  1.0
  C  C748  1  0.48600000  0.10830000  0.86640000  1.0
  C  C749  1  0.23060000  0.13859000  0.79410000  1.0
  C  C750  1  0.33440000  0.14506000  0.76550000  1.0
  C  C751  1  0.48570000  0.13981000  0.77000000  1.0
  C  C752  1  0.53310000  0.12809000  0.80310000  1.0
  C  C753  1  0.42930000  0.12162000  0.83160000  1.0
  C  C754  1  0.27800000  0.12687000  0.82710000  1.0
  C  C755  1  0.27200000  0.15600000  0.72930000  1.0
  C  C756  1  0.72800000  0.19103000  0.71490000  1.0
  C  C757  1  0.77630000  0.20552000  0.78220000  1.0
  C  C758  1  0.72710000  0.21634000  0.81600000  1.0
  C  C759  1  0.57880000  0.22342000  0.81870000  1.0
  C  C760  1  0.47970000  0.21967000  0.78750000  1.0
  C  C761  1  0.52890000  0.20886000  0.75360000  1.0
  C  C762  1  0.67730000  0.20178000  0.75100000  1.0
  C  C763  1  0.52400000  0.23370000  0.85650000  1.0
  C  C764  1  0.24600000  0.20294000  0.64920000  1.0
  C  C765  1  0.24840000  0.22762000  0.64780000  1.0
  C  C766  1  0.38300000  0.23856000  0.64660000  1.0
  C  C767  1  0.38600000  0.26104000  0.64760000  1.0
  C  C768  1  0.24800000  0.86960000  0.67800000  1.0
  C  C769  1  0.11250000  0.90481000  0.67480000  1.0
  C  C770  1  0.11130000  0.92748000  0.67290000  1.0
  C  C771  1  0.24600000  0.93902000  0.67400000  1.0
  C  C772  1  0.38190000  0.92789000  0.67700000  1.0
  C  C773  1  0.38310000  0.90522000  0.67890000  1.0
  C  C774  1  0.24840000  0.89368000  0.67780000  1.0
  C  C775  1  0.24900000  0.96280000  0.66780000  1.0
  C  C776  1  0.77000000  0.97970000  0.71990000  1.0
  C  C777  1  0.92380000  0.94173000  0.81740000  1.0
  C  C778  1  0.02400000  0.94828000  0.78800000  1.0
  C  C779  1  0.97360000  0.96092000  0.75640000  1.0
  C  C780  1  0.82310000  0.96700000  0.75420000  1.0
  C  C781  1  0.72290000  0.96045000  0.78360000  1.0
  C  C782  1  0.77330000  0.94782000  0.81520000  1.0
  C  C783  1  0.97700000  0.92880000  0.85290000  1.0
  C  C784  1  0.51400000  0.89170000  0.86640000  1.0
  C  C785  1  0.76940000  0.86141000  0.79410000  1.0
  C  C786  1  0.66560000  0.85494000  0.76550000  1.0
  C  C787  1  0.51430000  0.86019000  0.77000000  1.0
  C  C788  1  0.46690000  0.87191000  0.80310000  1.0
  C  C789  1  0.57070000  0.87838000  0.83160000  1.0
  C  C790  1  0.72200000  0.87313000  0.82710000  1.0
  C  C791  1  0.72800000  0.84400000  0.72930000  1.0
  C  C792  1  0.27200000  0.80897000  0.71490000  1.0
  C  C793  1  0.22370000  0.79448000  0.78220000  1.0
  C  C794  1  0.27290000  0.78366000  0.81600000  1.0
  C  C795  1  0.42120000  0.77658000  0.81870000  1.0
  C  C796  1  0.52030000  0.78033000  0.78750000  1.0
  C  C797  1  0.47110000  0.79114000  0.75360000  1.0
  C  C798  1  0.32270000  0.79822000  0.75100000  1.0
  C  C799  1  0.47600000  0.76630000  0.85650000  1.0
  C  C800  1  0.75400000  0.79706000  0.64920000  1.0
  C  C801  1  0.75160000  0.77238000  0.64780000  1.0
  C  C802  1  0.61700000  0.76144000  0.64660000  1.0
  C  C803  1  0.61400000  0.73896000  0.64760000  1.0
  C  C804  1  0.24800000  0.36960000  0.17800000  1.0
  C  C805  1  0.11250000  0.40481000  0.17480000  1.0
  C  C806  1  0.11130000  0.42748000  0.17290000  1.0
  C  C807  1  0.24600000  0.43902000  0.17400000  1.0
  C  C808  1  0.38190000  0.42789000  0.17700000  1.0
  C  C809  1  0.38310000  0.40522000  0.17890000  1.0
  C  C810  1  0.24840000  0.39368000  0.17780000  1.0
  C  C811  1  0.24900000  0.46280000  0.16780000  1.0
  C  C812  1  0.77000000  0.47970000  0.21990000  1.0
  C  C813  1  0.92380000  0.44173000  0.31740000  1.0
  C  C814  1  0.02400000  0.44828000  0.28800000  1.0
  C  C815  1  0.97360000  0.46092000  0.25640000  1.0
  C  C816  1  0.82310000  0.46700000  0.25420000  1.0
  C  C817  1  0.72290000  0.46045000  0.28360000  1.0
  C  C818  1  0.77330000  0.44782000  0.31520000  1.0
  C  C819  1  0.97700000  0.42880000  0.35290000  1.0
  C  C820  1  0.51400000  0.39170000  0.36640000  1.0
  C  C821  1  0.76940000  0.36141000  0.29410000  1.0
  C  C822  1  0.66560000  0.35494000  0.26550000  1.0
  C  C823  1  0.51430000  0.36019000  0.27000000  1.0
  C  C824  1  0.46690000  0.37191000  0.30310000  1.0
  C  C825  1  0.57070000  0.37838000  0.33160000  1.0
  C  C826  1  0.72200000  0.37313000  0.32710000  1.0
  C  C827  1  0.72800000  0.34400000  0.22930000  1.0
  C  C828  1  0.27200000  0.30897000  0.21490000  1.0
  C  C829  1  0.22370000  0.29448000  0.28220000  1.0
  C  C830  1  0.27290000  0.28366000  0.31600000  1.0
  C  C831  1  0.42120000  0.27658000  0.31870000  1.0
  C  C832  1  0.52030000  0.28033000  0.28750000  1.0
  C  C833  1  0.47110000  0.29114000  0.25360000  1.0
  C  C834  1  0.32270000  0.29822000  0.25100000  1.0
  C  C835  1  0.47600000  0.26630000  0.35650000  1.0
  C  C836  1  0.75400000  0.29706000  0.14920000  1.0
  C  C837  1  0.75160000  0.27238000  0.14780000  1.0
  C  C838  1  0.61700000  0.26144000  0.14660000  1.0
  C  C839  1  0.61400000  0.23896000  0.14760000  1.0
  C  C840  1  0.74800000  0.86960000  0.17800000  1.0
  C  C841  1  0.61250000  0.90481000  0.17480000  1.0
  C  C842  1  0.61130000  0.92748000  0.17290000  1.0
  C  C843  1  0.74600000  0.93902000  0.17400000  1.0
  C  C844  1  0.88190000  0.92789000  0.17700000  1.0
  C  C845  1  0.88310000  0.90522000  0.17890000  1.0
  C  C846  1  0.74840000  0.89368000  0.17780000  1.0
  C  C847  1  0.74900000  0.96280000  0.16780000  1.0
  C  C848  1  0.27000000  0.97970000  0.21990000  1.0
  C  C849  1  0.42380000  0.94173000  0.31740000  1.0
  C  C850  1  0.52400000  0.94828000  0.28800000  1.0
  C  C851  1  0.47360000  0.96092000  0.25640000  1.0
  C  C852  1  0.32310000  0.96700000  0.25420000  1.0
  C  C853  1  0.22290000  0.96045000  0.28360000  1.0
  C  C854  1  0.27330000  0.94782000  0.31520000  1.0
  C  C855  1  0.47700000  0.92880000  0.35290000  1.0
  C  C856  1  0.01400000  0.89170000  0.36640000  1.0
  C  C857  1  0.26940000  0.86141000  0.29410000  1.0
  C  C858  1  0.16560000  0.85494000  0.26550000  1.0
  C  C859  1  0.01430000  0.86019000  0.27000000  1.0
  C  C860  1  0.96690000  0.87191000  0.30310000  1.0
  C  C861  1  0.07070000  0.87838000  0.33160000  1.0
  C  C862  1  0.22200000  0.87313000  0.32710000  1.0
  C  C863  1  0.22800000  0.84400000  0.22930000  1.0
  C  C864  1  0.77200000  0.80897000  0.21490000  1.0
  C  C865  1  0.72370000  0.79448000  0.28220000  1.0
  C  C866  1  0.77290000  0.78366000  0.31600000  1.0
  C  C867  1  0.92120000  0.77658000  0.31870000  1.0
  C  C868  1  0.02030000  0.78033000  0.28750000  1.0
  C  C869  1  0.97110000  0.79114000  0.25360000  1.0
  C  C870  1  0.82270000  0.79822000  0.25100000  1.0
  C  C871  1  0.97600000  0.76630000  0.35650000  1.0
  C  C872  1  0.25400000  0.79706000  0.14920000  1.0
  C  C873  1  0.25160000  0.77238000  0.14780000  1.0
  C  C874  1  0.11700000  0.76144000  0.14660000  1.0
  C  C875  1  0.11400000  0.73896000  0.14760000  1.0
  C  C876  1  0.74800000  0.36960000  0.67800000  1.0
  C  C877  1  0.61250000  0.40481000  0.67480000  1.0
  C  C878  1  0.61130000  0.42748000  0.67290000  1.0
  C  C879  1  0.74600000  0.43902000  0.67400000  1.0
  C  C880  1  0.88190000  0.42789000  0.67700000  1.0
  C  C881  1  0.88310000  0.40522000  0.67890000  1.0
  C  C882  1  0.74840000  0.39368000  0.67780000  1.0
  C  C883  1  0.74900000  0.46280000  0.66780000  1.0
  C  C884  1  0.27000000  0.47970000  0.71990000  1.0
  C  C885  1  0.42380000  0.44173000  0.81740000  1.0
  C  C886  1  0.52400000  0.44828000  0.78800000  1.0
  C  C887  1  0.47360000  0.46092000  0.75640000  1.0
  C  C888  1  0.32310000  0.46700000  0.75420000  1.0
  C  C889  1  0.22290000  0.46045000  0.78360000  1.0
  C  C890  1  0.27330000  0.44782000  0.81520000  1.0
  C  C891  1  0.47700000  0.42880000  0.85290000  1.0
  C  C892  1  0.01400000  0.39170000  0.86640000  1.0
  C  C893  1  0.26940000  0.36141000  0.79410000  1.0
  C  C894  1  0.16560000  0.35494000  0.76550000  1.0
  C  C895  1  0.01430000  0.36019000  0.77000000  1.0
  C  C896  1  0.96690000  0.37191000  0.80310000  1.0
  C  C897  1  0.07070000  0.37838000  0.83160000  1.0
  C  C898  1  0.22200000  0.37313000  0.82710000  1.0
  C  C899  1  0.22800000  0.34400000  0.72930000  1.0
  C  C900  1  0.77200000  0.30897000  0.71490000  1.0
  C  C901  1  0.72370000  0.29448000  0.78220000  1.0
  C  C902  1  0.77290000  0.28366000  0.81600000  1.0
  C  C903  1  0.92120000  0.27658000  0.81870000  1.0
  C  C904  1  0.02030000  0.28033000  0.78750000  1.0
  C  C905  1  0.97110000  0.29114000  0.75360000  1.0
  C  C906  1  0.82270000  0.29822000  0.75100000  1.0
  C  C907  1  0.97600000  0.26630000  0.85650000  1.0
  C  C908  1  0.25400000  0.29706000  0.64920000  1.0
  C  C909  1  0.25160000  0.27238000  0.64780000  1.0
  C  C910  1  0.11700000  0.26144000  0.64660000  1.0
  C  C911  1  0.11400000  0.23896000  0.64760000  1.0
  O  O912  1  0.12130000  0.61027000  0.43850000  1.0
  O  O913  1  0.87970000  0.60983000  0.41980000  1.0
  O  O914  1  0.12100000  0.72181000  0.40780000  1.0
  O  O915  1  0.88800000  0.72296000  0.42710000  1.0
  O  O916  1  0.61620000  0.73400000  0.46770000  1.0
  O  O917  1  0.38210000  0.73760000  0.44780000  1.0
  O  O918  1  0.37330000  0.67253000  0.62700000  1.0
  O  O919  1  0.13590000  0.67468000  0.60560000  1.0
  O  O920  1  0.87260000  0.64621000  0.61860000  1.0
  O  O921  1  0.63850000  0.64690000  0.64220000  1.0
  O  O922  1  0.62410000  0.58808000  0.45410000  1.0
  O  O923  1  0.38810000  0.59062000  0.47580000  1.0
  O  O924  1  0.11130000  0.56473000  0.46300000  1.0
  O  O925  1  0.88320000  0.56232000  0.43760000  1.0
  O  O926  1  0.86860000  0.51290000  0.63250000  1.0
  O  O927  1  0.63670000  0.51220000  0.60950000  1.0
  O  O928  1  0.61700000  0.55679000  0.39090000  1.0
  O  O929  1  0.37630000  0.55614000  0.41140000  1.0
  O  O930  1  0.12130000  0.11027000  0.93850000  1.0
  O  O931  1  0.87970000  0.10983000  0.91980000  1.0
  O  O932  1  0.12100000  0.22181000  0.90780000  1.0
  O  O933  1  0.88800000  0.22296000  0.92710000  1.0
  O  O934  1  0.61620000  0.23400000  0.96770000  1.0
  O  O935  1  0.38210000  0.23760000  0.94780000  1.0
  O  O936  1  0.37330000  0.17253000  0.12700000  1.0
  O  O937  1  0.13590000  0.17468000  0.10560000  1.0
  O  O938  1  0.87260000  0.14621000  0.11860000  1.0
  O  O939  1  0.63850000  0.14690000  0.14220000  1.0
  O  O940  1  0.62410000  0.08808000  0.95410000  1.0
  O  O941  1  0.38810000  0.09062000  0.97580000  1.0
  O  O942  1  0.11130000  0.06473000  0.96300000  1.0
  O  O943  1  0.88320000  0.06232000  0.93760000  1.0
  O  O944  1  0.86860000  0.01290000  0.13250000  1.0
  O  O945  1  0.63670000  0.01220000  0.10950000  1.0
  O  O946  1  0.61700000  0.05679000  0.89090000  1.0
  O  O947  1  0.37630000  0.05614000  0.91140000  1.0
  O  O948  1  0.62130000  0.61027000  0.93850000  1.0
  O  O949  1  0.37970000  0.60983000  0.91980000  1.0
  O  O950  1  0.62100000  0.72181000  0.90780000  1.0
  O  O951  1  0.38800000  0.72296000  0.92710000  1.0
  O  O952  1  0.11620000  0.73400000  0.96770000  1.0
  O  O953  1  0.88210000  0.73760000  0.94780000  1.0
  O  O954  1  0.87330000  0.67253000  0.12700000  1.0
  O  O955  1  0.63590000  0.67468000  0.10560000  1.0
  O  O956  1  0.37260000  0.64621000  0.11860000  1.0
  O  O957  1  0.13850000  0.64690000  0.14220000  1.0
  O  O958  1  0.12410000  0.58808000  0.95410000  1.0
  O  O959  1  0.88810000  0.59062000  0.97580000  1.0
  O  O960  1  0.61130000  0.56473000  0.96300000  1.0
  O  O961  1  0.38320000  0.56232000  0.93760000  1.0
  O  O962  1  0.36860000  0.51290000  0.13250000  1.0
  O  O963  1  0.13670000  0.51220000  0.10950000  1.0
  O  O964  1  0.11700000  0.55679000  0.89090000  1.0
  O  O965  1  0.87630000  0.55614000  0.91140000  1.0
  O  O966  1  0.62130000  0.11027000  0.43850000  1.0
  O  O967  1  0.37970000  0.10983000  0.41980000  1.0
  O  O968  1  0.62100000  0.22181000  0.40780000  1.0
  O  O969  1  0.38800000  0.22296000  0.42710000  1.0
  O  O970  1  0.11620000  0.23400000  0.46770000  1.0
  O  O971  1  0.88210000  0.23760000  0.44780000  1.0
  O  O972  1  0.87330000  0.17253000  0.62700000  1.0
  O  O973  1  0.63590000  0.17468000  0.60560000  1.0
  O  O974  1  0.37260000  0.14621000  0.61860000  1.0
  O  O975  1  0.13850000  0.14690000  0.64220000  1.0
  O  O976  1  0.12410000  0.08808000  0.45410000  1.0
  O  O977  1  0.88810000  0.09062000  0.47580000  1.0
  O  O978  1  0.61130000  0.06473000  0.46300000  1.0
  O  O979  1  0.38320000  0.06232000  0.43760000  1.0
  O  O980  1  0.36860000  0.01290000  0.63250000  1.0
  O  O981  1  0.13670000  0.01220000  0.60950000  1.0
  O  O982  1  0.11700000  0.05679000  0.39090000  1.0
  O  O983  1  0.87630000  0.05614000  0.41140000  1.0
  O  O984  1  0.87870000  0.38973000  0.43850000  1.0
  O  O985  1  0.12030000  0.39017000  0.41980000  1.0
  O  O986  1  0.87900000  0.27819000  0.40780000  1.0
  O  O987  1  0.11200000  0.27704000  0.42710000  1.0
  O  O988  1  0.38380000  0.26600000  0.46770000  1.0
  O  O989  1  0.61790000  0.26240000  0.44780000  1.0
  O  O990  1  0.62670000  0.32747000  0.62700000  1.0
  O  O991  1  0.86410000  0.32532000  0.60560000  1.0
  O  O992  1  0.12740000  0.35379000  0.61860000  1.0
  O  O993  1  0.36150000  0.35310000  0.64220000  1.0
  O  O994  1  0.37590000  0.41192000  0.45410000  1.0
  O  O995  1  0.61190000  0.40938000  0.47580000  1.0
  O  O996  1  0.88870000  0.43527000  0.46300000  1.0
  O  O997  1  0.11680000  0.43768000  0.43760000  1.0
  O  O998  1  0.13140000  0.48710000  0.63250000  1.0
  O  O999  1  0.36330000  0.48780000  0.60950000  1.0
  O  O1000  1  0.38300000  0.44321000  0.39090000  1.0
  O  O1001  1  0.62370000  0.44386000  0.41140000  1.0
  O  O1002  1  0.87870000  0.88973000  0.93850000  1.0
  O  O1003  1  0.12030000  0.89017000  0.91980000  1.0
  O  O1004  1  0.87900000  0.77819000  0.90780000  1.0
  O  O1005  1  0.11200000  0.77704000  0.92710000  1.0
  O  O1006  1  0.38380000  0.76600000  0.96770000  1.0
  O  O1007  1  0.61790000  0.76240000  0.94780000  1.0
  O  O1008  1  0.62670000  0.82747000  0.12700000  1.0
  O  O1009  1  0.86410000  0.82532000  0.10560000  1.0
  O  O1010  1  0.12740000  0.85379000  0.11860000  1.0
  O  O1011  1  0.36150000  0.85310000  0.14220000  1.0
  O  O1012  1  0.37590000  0.91192000  0.95410000  1.0
  O  O1013  1  0.61190000  0.90938000  0.97580000  1.0
  O  O1014  1  0.88870000  0.93527000  0.96300000  1.0
  O  O1015  1  0.11680000  0.93768000  0.93760000  1.0
  O  O1016  1  0.13140000  0.98710000  0.13250000  1.0
  O  O1017  1  0.36330000  0.98780000  0.10950000  1.0
  O  O1018  1  0.38300000  0.94321000  0.89090000  1.0
  O  O1019  1  0.62370000  0.94386000  0.91140000  1.0
  O  O1020  1  0.37870000  0.38973000  0.93850000  1.0
  O  O1021  1  0.62030000  0.39017000  0.91980000  1.0
  O  O1022  1  0.37900000  0.27819000  0.90780000  1.0
  O  O1023  1  0.61200000  0.27704000  0.92710000  1.0
  O  O1024  1  0.88380000  0.26600000  0.96770000  1.0
  O  O1025  1  0.11790000  0.26240000  0.94780000  1.0
  O  O1026  1  0.12670000  0.32747000  0.12700000  1.0
  O  O1027  1  0.36410000  0.32532000  0.10560000  1.0
  O  O1028  1  0.62740000  0.35379000  0.11860000  1.0
  O  O1029  1  0.86150000  0.35310000  0.14220000  1.0
  O  O1030  1  0.87590000  0.41192000  0.95410000  1.0
  O  O1031  1  0.11190000  0.40938000  0.97580000  1.0
  O  O1032  1  0.38870000  0.43527000  0.96300000  1.0
  O  O1033  1  0.61680000  0.43768000  0.93760000  1.0
  O  O1034  1  0.63140000  0.48710000  0.13250000  1.0
  O  O1035  1  0.86330000  0.48780000  0.10950000  1.0
  O  O1036  1  0.88300000  0.44321000  0.89090000  1.0
  O  O1037  1  0.12370000  0.44386000  0.91140000  1.0
  O  O1038  1  0.37870000  0.88973000  0.43850000  1.0
  O  O1039  1  0.62030000  0.89017000  0.41980000  1.0
  O  O1040  1  0.37900000  0.77819000  0.40780000  1.0
  O  O1041  1  0.61200000  0.77704000  0.42710000  1.0
  O  O1042  1  0.88380000  0.76600000  0.46770000  1.0
  O  O1043  1  0.11790000  0.76240000  0.44780000  1.0
  O  O1044  1  0.12670000  0.82747000  0.62700000  1.0
  O  O1045  1  0.36410000  0.82532000  0.60560000  1.0
  O  O1046  1  0.62740000  0.85379000  0.61860000  1.0
  O  O1047  1  0.86150000  0.85310000  0.64220000  1.0
  O  O1048  1  0.87590000  0.91192000  0.45410000  1.0
  O  O1049  1  0.11190000  0.90938000  0.47580000  1.0
  O  O1050  1  0.38870000  0.93527000  0.46300000  1.0
  O  O1051  1  0.61680000  0.93768000  0.43760000  1.0
  O  O1052  1  0.63140000  0.98710000  0.63250000  1.0
  O  O1053  1  0.86330000  0.98780000  0.60950000  1.0
  O  O1054  1  0.88300000  0.94321000  0.39090000  1.0
  O  O1055  1  0.12370000  0.94386000  0.41140000  1.0
  O  O1056  1  0.37130000  0.63973000  0.68850000  1.0
  O  O1057  1  0.12970000  0.64017000  0.66980000  1.0
  O  O1058  1  0.37100000  0.52819000  0.65780000  1.0
  O  O1059  1  0.13800000  0.52704000  0.67710000  1.0
  O  O1060  1  0.86620000  0.51600000  0.71770000  1.0
  O  O1061  1  0.63210000  0.51240000  0.69780000  1.0
  O  O1062  1  0.62330000  0.57747000  0.87700000  1.0
  O  O1063  1  0.38590000  0.57532000  0.85560000  1.0
  O  O1064  1  0.12260000  0.60379000  0.86860000  1.0
  O  O1065  1  0.88850000  0.60310000  0.89220000  1.0
  O  O1066  1  0.87410000  0.66192000  0.70410000  1.0
  O  O1067  1  0.63810000  0.65938000  0.72580000  1.0
  O  O1068  1  0.36130000  0.68527000  0.71300000  1.0
  O  O1069  1  0.13320000  0.68768000  0.68760000  1.0
  O  O1070  1  0.11860000  0.73710000  0.88250000  1.0
  O  O1071  1  0.88670000  0.73780000  0.85950000  1.0
  O  O1072  1  0.86700000  0.69321000  0.64090000  1.0
  O  O1073  1  0.62630000  0.69386000  0.66140000  1.0
  O  O1074  1  0.37130000  0.13973000  0.18850000  1.0
  O  O1075  1  0.12970000  0.14017000  0.16980000  1.0
  O  O1076  1  0.37100000  0.02819000  0.15780000  1.0
  O  O1077  1  0.13800000  0.02704000  0.17710000  1.0
  O  O1078  1  0.86620000  0.01600000  0.21770000  1.0
  O  O1079  1  0.63210000  0.01240000  0.19780000  1.0
  O  O1080  1  0.62330000  0.07747000  0.37700000  1.0
  O  O1081  1  0.38590000  0.07532000  0.35560000  1.0
  O  O1082  1  0.12260000  0.10379000  0.36860000  1.0
  O  O1083  1  0.88850000  0.10310000  0.39220000  1.0
  O  O1084  1  0.87410000  0.16192000  0.20410000  1.0
  O  O1085  1  0.63810000  0.15938000  0.22580000  1.0
  O  O1086  1  0.36130000  0.18527000  0.21300000  1.0
  O  O1087  1  0.13320000  0.18768000  0.18760000  1.0
  O  O1088  1  0.11860000  0.23710000  0.38250000  1.0
  O  O1089  1  0.88670000  0.23780000  0.35950000  1.0
  O  O1090  1  0.86700000  0.19321000  0.14090000  1.0
  O  O1091  1  0.62630000  0.19386000  0.16140000  1.0
  O  O1092  1  0.87130000  0.63973000  0.18850000  1.0
  O  O1093  1  0.62970000  0.64017000  0.16980000  1.0
  O  O1094  1  0.87100000  0.52819000  0.15780000  1.0
  O  O1095  1  0.63800000  0.52704000  0.17710000  1.0
  O  O1096  1  0.36620000  0.51600000  0.21770000  1.0
  O  O1097  1  0.13210000  0.51240000  0.19780000  1.0
  O  O1098  1  0.12330000  0.57747000  0.37700000  1.0
  O  O1099  1  0.88590000  0.57532000  0.35560000  1.0
  O  O1100  1  0.62260000  0.60379000  0.36860000  1.0
  O  O1101  1  0.38850000  0.60310000  0.39220000  1.0
  O  O1102  1  0.37410000  0.66192000  0.20410000  1.0
  O  O1103  1  0.13810000  0.65938000  0.22580000  1.0
  O  O1104  1  0.86130000  0.68527000  0.21300000  1.0
  O  O1105  1  0.63320000  0.68768000  0.18760000  1.0
  O  O1106  1  0.61860000  0.73710000  0.38250000  1.0
  O  O1107  1  0.38670000  0.73780000  0.35950000  1.0
  O  O1108  1  0.36700000  0.69321000  0.14090000  1.0
  O  O1109  1  0.12630000  0.69386000  0.16140000  1.0
  O  O1110  1  0.87130000  0.13973000  0.68850000  1.0
  O  O1111  1  0.62970000  0.14017000  0.66980000  1.0
  O  O1112  1  0.87100000  0.02819000  0.65780000  1.0
  O  O1113  1  0.63800000  0.02704000  0.67710000  1.0
  O  O1114  1  0.36620000  0.01600000  0.71770000  1.0
  O  O1115  1  0.13210000  0.01240000  0.69780000  1.0
  O  O1116  1  0.12330000  0.07747000  0.87700000  1.0
  O  O1117  1  0.88590000  0.07532000  0.85560000  1.0
  O  O1118  1  0.62260000  0.10379000  0.86860000  1.0
  O  O1119  1  0.38850000  0.10310000  0.89220000  1.0
  O  O1120  1  0.37410000  0.16192000  0.70410000  1.0
  O  O1121  1  0.13810000  0.15938000  0.72580000  1.0
  O  O1122  1  0.86130000  0.18527000  0.71300000  1.0
  O  O1123  1  0.63320000  0.18768000  0.68760000  1.0
  O  O1124  1  0.61860000  0.23710000  0.88250000  1.0
  O  O1125  1  0.38670000  0.23780000  0.85950000  1.0
  O  O1126  1  0.36700000  0.19321000  0.64090000  1.0
  O  O1127  1  0.12630000  0.19386000  0.66140000  1.0
  O  O1128  1  0.12870000  0.86027000  0.68850000  1.0
  O  O1129  1  0.37030000  0.85983000  0.66980000  1.0
  O  O1130  1  0.12900000  0.97181000  0.65780000  1.0
  O  O1131  1  0.36200000  0.97296000  0.67710000  1.0
  O  O1132  1  0.63380000  0.98400000  0.71770000  1.0
  O  O1133  1  0.86790000  0.98760000  0.69780000  1.0
  O  O1134  1  0.87670000  0.92253000  0.87700000  1.0
  O  O1135  1  0.11410000  0.92468000  0.85560000  1.0
  O  O1136  1  0.37740000  0.89621000  0.86860000  1.0
  O  O1137  1  0.61150000  0.89690000  0.89220000  1.0
  O  O1138  1  0.62590000  0.83808000  0.70410000  1.0
  O  O1139  1  0.86190000  0.84062000  0.72580000  1.0
  O  O1140  1  0.13870000  0.81473000  0.71300000  1.0
  O  O1141  1  0.36680000  0.81232000  0.68760000  1.0
  O  O1142  1  0.38140000  0.76290000  0.88250000  1.0
  O  O1143  1  0.61330000  0.76220000  0.85950000  1.0
  O  O1144  1  0.63300000  0.80679000  0.64090000  1.0
  O  O1145  1  0.87370000  0.80614000  0.66140000  1.0
  O  O1146  1  0.12870000  0.36027000  0.18850000  1.0
  O  O1147  1  0.37030000  0.35983000  0.16980000  1.0
  O  O1148  1  0.12900000  0.47181000  0.15780000  1.0
  O  O1149  1  0.36200000  0.47296000  0.17710000  1.0
  O  O1150  1  0.63380000  0.48400000  0.21770000  1.0
  O  O1151  1  0.86790000  0.48760000  0.19780000  1.0
  O  O1152  1  0.87670000  0.42253000  0.37700000  1.0
  O  O1153  1  0.11410000  0.42468000  0.35560000  1.0
  O  O1154  1  0.37740000  0.39621000  0.36860000  1.0
  O  O1155  1  0.61150000  0.39690000  0.39220000  1.0
  O  O1156  1  0.62590000  0.33808000  0.20410000  1.0
  O  O1157  1  0.86190000  0.34062000  0.22580000  1.0
  O  O1158  1  0.13870000  0.31473000  0.21300000  1.0
  O  O1159  1  0.36680000  0.31232000  0.18760000  1.0
  O  O1160  1  0.38140000  0.26290000  0.38250000  1.0
  O  O1161  1  0.61330000  0.26220000  0.35950000  1.0
  O  O1162  1  0.63300000  0.30679000  0.14090000  1.0
  O  O1163  1  0.87370000  0.30614000  0.16140000  1.0
  O  O1164  1  0.62870000  0.86027000  0.18850000  1.0
  O  O1165  1  0.87030000  0.85983000  0.16980000  1.0
  O  O1166  1  0.62900000  0.97181000  0.15780000  1.0
  O  O1167  1  0.86200000  0.97296000  0.17710000  1.0
  O  O1168  1  0.13380000  0.98400000  0.21770000  1.0
  O  O1169  1  0.36790000  0.98760000  0.19780000  1.0
  O  O1170  1  0.37670000  0.92253000  0.37700000  1.0
  O  O1171  1  0.61410000  0.92468000  0.35560000  1.0
  O  O1172  1  0.87740000  0.89621000  0.36860000  1.0
  O  O1173  1  0.11150000  0.89690000  0.39220000  1.0
  O  O1174  1  0.12590000  0.83808000  0.20410000  1.0
  O  O1175  1  0.36190000  0.84062000  0.22580000  1.0
  O  O1176  1  0.63870000  0.81473000  0.21300000  1.0
  O  O1177  1  0.86680000  0.81232000  0.18760000  1.0
  O  O1178  1  0.88140000  0.76290000  0.38250000  1.0
  O  O1179  1  0.11330000  0.76220000  0.35950000  1.0
  O  O1180  1  0.13300000  0.80679000  0.14090000  1.0
  O  O1181  1  0.37370000  0.80614000  0.16140000  1.0
  O  O1182  1  0.62870000  0.36027000  0.68850000  1.0
  O  O1183  1  0.87030000  0.35983000  0.66980000  1.0
  O  O1184  1  0.62900000  0.47181000  0.65780000  1.0
  O  O1185  1  0.86200000  0.47296000  0.67710000  1.0
  O  O1186  1  0.13380000  0.48400000  0.71770000  1.0
  O  O1187  1  0.36790000  0.48760000  0.69780000  1.0
  O  O1188  1  0.37670000  0.42253000  0.87700000  1.0
  O  O1189  1  0.61410000  0.42468000  0.85560000  1.0
  O  O1190  1  0.87740000  0.39621000  0.86860000  1.0
  O  O1191  1  0.11150000  0.39690000  0.89220000  1.0
  O  O1192  1  0.12590000  0.33808000  0.70410000  1.0
  O  O1193  1  0.36190000  0.34062000  0.72580000  1.0
  O  O1194  1  0.63870000  0.31473000  0.71300000  1.0
  O  O1195  1  0.86680000  0.31232000  0.68760000  1.0
  O  O1196  1  0.88140000  0.26290000  0.88250000  1.0
  O  O1197  1  0.11330000  0.26220000  0.85950000  1.0
  O  O1198  1  0.13300000  0.30679000  0.64090000  1.0
  O  O1199  1  0.37370000  0.30614000  0.66140000  1.0
