# generated using pymatgen
data_Nd8Cu4H96C191N32O61
_symmetry_space_group_name_H-M   'P 1'
_cell_length_a   11.29930000
_cell_length_b   32.55740000
_cell_length_c   32.55750000
_cell_angle_alpha   88.27450000
_cell_angle_beta   80.00700000
_cell_angle_gamma   80.00730000
_symmetry_Int_Tables_number   1
_chemical_formula_structural   Nd8Cu4H96C191N32O61
_chemical_formula_sum   'Nd16 Cu8 H192 C382 N64 O122'
_cell_volume   11616.47407161
_cell_formula_units_Z   2
loop_
 _symmetry_equiv_pos_site_id
 _symmetry_equiv_pos_as_xyz
  1  'x, y, z'
loop_
 _atom_site_type_symbol
 _atom_site_label
 _atom_site_symmetry_multiplicity
 _atom_site_fract_x
 _atom_site_fract_y
 _atom_site_fract_z
 _atom_site_occupancy
  Nd  Nd0  1  0.29032000  0.66929000  0.03175000  1.0
  Nd  Nd1  1  0.70968000  0.33071000  0.96825000  1.0
  Nd  Nd2  1  0.17409000  0.02763000  0.82979000  1.0
  Nd  Nd3  1  0.67793000  0.03175000  0.83071000  1.0
  Nd  Nd4  1  0.79828000  0.67021000  0.02763000  1.0
  Nd  Nd5  1  0.50864000  0.16929000  0.53175000  1.0
  Nd  Nd6  1  0.95961000  0.53175000  0.33071000  1.0
  Nd  Nd7  1  0.49136000  0.83071000  0.46825000  1.0
  Nd  Nd8  1  0.20172000  0.32979000  0.97237000  1.0
  Nd  Nd9  1  0.04039000  0.46825000  0.66929000  1.0
  Nd  Nd10  1  0.32207000  0.96825000  0.16929000  1.0
  Nd  Nd11  1  0.46849000  0.52763000  0.32979000  1.0
  Nd  Nd12  1  0.53151000  0.47237000  0.67021000  1.0
  Nd  Nd13  1  0.82591000  0.97237000  0.17021000  1.0
  Nd  Nd14  1  0.00388000  0.17021000  0.52763000  1.0
  Nd  Nd15  1  0.99612000  0.82979000  0.47237000  1.0
  Cu  Cu16  1  0.08422000  0.46273000  0.13039000  1.0
  Cu  Cu17  1  0.54694000  0.63040000  0.53727000  1.0
  Cu  Cu18  1  0.45306000  0.36960000  0.46273000  1.0
  Cu  Cu19  1  0.82266000  0.96273000  0.63039000  1.0
  Cu  Cu20  1  0.78538000  0.13040000  0.03727000  1.0
  Cu  Cu21  1  0.91578000  0.53727000  0.86961000  1.0
  Cu  Cu22  1  0.17734000  0.03727000  0.36961000  1.0
  Cu  Cu23  1  0.21462000  0.86960000  0.96273000  1.0
  H  H24  1  0.76340000  0.58570000  0.81210000  1.0
  H  H25  1  0.79340000  0.71140000  0.87680000  1.0
  H  H26  1  0.57550000  0.18790000  0.08570000  1.0
  H  H27  1  0.38460000  0.45340000  0.78620000  1.0
  H  H28  1  0.83190000  0.87570000  0.78310000  1.0
  H  H29  1  0.57510000  0.70610000  0.47810000  1.0
  H  H30  1  0.75220000  0.47430000  0.46330000  1.0
  H  H31  1  0.00600000  0.31980000  0.14460000  1.0
  H  H32  1  0.10100000  0.10620000  0.00400000  1.0
  H  H33  1  0.70760000  0.28310000  0.12430000  1.0
  H  H34  1  0.82370000  0.27730000  0.64230000  1.0
  H  H35  1  0.42490000  0.29390000  0.52190000  1.0
  H  H36  1  0.44890000  0.01650000  0.06070000  1.0
  H  H37  1  0.16810000  0.12430000  0.21690000  1.0
  H  H38  1  0.31580000  0.86290000  0.13590000  1.0
  H  H39  1  0.78450000  0.46330000  0.02570000  1.0
  H  H40  1  0.09060000  0.86190000  0.89030000  1.0
  H  H41  1  0.24780000  0.52570000  0.53670000  1.0
  H  H42  1  0.66120000  0.91430000  0.68790000  1.0
  H  H43  1  0.62950000  0.53940000  0.14260000  1.0
  H  H44  1  0.37500000  0.16080000  0.86640000  1.0
  H  H45  1  0.74070000  0.20610000  0.97810000  1.0
  H  H46  1  0.54830000  0.13590000  0.63710000  1.0
  H  H47  1  0.17070000  0.78110000  0.08970000  1.0
  H  H48  1  0.52030000  0.99820000  0.62040000  1.0
  H  H49  1  0.23660000  0.41430000  0.18790000  1.0
  H  H50  1  0.50960000  0.93930000  0.51650000  1.0
  H  H51  1  0.26040000  0.91030000  0.28110000  1.0
  H  H52  1  0.42330000  0.25500000  0.37240000  1.0
  H  H53  1  0.11870000  0.03090000  0.52670000  1.0
  H  H54  1  0.61500000  0.21690000  0.37570000  1.0
  H  H55  1  0.53400000  0.64230000  0.22270000  1.0
  H  H56  1  0.64540000  0.47330000  0.53090000  1.0
  H  H57  1  0.08120000  0.06230000  0.46450000  1.0
  H  H58  1  0.78130000  0.75630000  0.20870000  1.0
  H  H59  1  0.01000000  0.20870000  0.74370000  1.0
  H  H60  1  0.57060000  0.00680000  0.43640000  1.0
  H  H61  1  0.75670000  0.77730000  0.14230000  1.0
  H  H62  1  0.16200000  0.71380000  0.45340000  1.0
  H  H63  1  0.97040000  0.18020000  0.35540000  1.0
  H  H64  1  0.59930000  0.95930000  0.30990000  1.0
  H  H65  1  0.47970000  0.00180000  0.37960000  1.0
  H  H66  1  0.33880000  0.08570000  0.31210000  1.0
  H  H67  1  0.52550000  0.66280000  0.36980000  1.0
  H  H68  1  0.45430000  0.46450000  0.43770000  1.0
  H  H69  1  0.90220000  0.33920000  0.63360000  1.0
  H  H70  1  0.81460000  0.63710000  0.36410000  1.0
  H  H71  1  0.53460000  0.43930000  0.01650000  1.0
  H  H72  1  0.84940000  0.14460000  0.18020000  1.0
  H  H73  1  0.42260000  0.06360000  0.00680000  1.0
  H  H74  1  0.09780000  0.66080000  0.36640000  1.0
  H  H75  1  0.77210000  0.85740000  0.03940000  1.0
  H  H76  1  0.16890000  0.64260000  0.46060000  1.0
  H  H77  1  0.55110000  0.98350000  0.93930000  1.0
  H  H78  1  0.71120000  0.39380000  0.49600000  1.0
  H  H79  1  0.15060000  0.85540000  0.81980000  1.0
  H  H80  1  0.34280000  0.63810000  0.60970000  1.0
  H  H81  1  0.42450000  0.81210000  0.91430000  1.0
  H  H82  1  0.49780000  0.07110000  0.63090000  1.0
  H  H83  1  0.46600000  0.35770000  0.77730000  1.0
  H  H84  1  0.57740000  0.93640000  0.99320000  1.0
  H  H85  1  0.34910000  0.31210000  0.41430000  1.0
  H  H86  1  0.20660000  0.28860000  0.12320000  1.0
  H  H87  1  0.04820000  0.41030000  0.78110000  1.0
  H  H88  1  0.18540000  0.36290000  0.63590000  1.0
  H  H89  1  0.22790000  0.14260000  0.96060000  1.0
  H  H90  1  0.44140000  0.19010000  0.95930000  1.0
  H  H91  1  0.29240000  0.71690000  0.87570000  1.0
  H  H92  1  0.55070000  0.24500000  0.12760000  1.0
  H  H93  1  0.95250000  0.39030000  0.13810000  1.0
  H  H94  1  0.14350000  0.96450000  0.93770000  1.0
  H  H95  1  0.99070000  0.62430000  0.71690000  1.0
  H  H96  1  0.51380000  0.49320000  0.06360000  1.0
  H  H97  1  0.28120000  0.97810000  0.29390000  1.0
  H  H98  1  0.94190000  0.16280000  0.86980000  1.0
  H  H99  1  0.47450000  0.33720000  0.63020000  1.0
  H  H100  1  0.24630000  0.74370000  0.29130000  1.0
  H  H101  1  0.45170000  0.86410000  0.36290000  1.0
  H  H102  1  0.56890000  0.13090000  0.92890000  1.0
  H  H103  1  0.36110000  0.49820000  0.12040000  1.0
  H  H104  1  0.17630000  0.46910000  0.97330000  1.0
  H  H105  1  0.02960000  0.81980000  0.64460000  1.0
  H  H106  1  0.45850000  0.28110000  0.58970000  1.0
  H  H107  1  0.69980000  0.42890000  0.86910000  1.0
  H  H108  1  0.63150000  0.45930000  0.80990000  1.0
  H  H109  1  0.32170000  0.12760000  0.25500000  1.0
  H  H110  1  0.67020000  0.12320000  0.21140000  1.0
  H  H111  1  0.90940000  0.13810000  0.10970000  1.0
  H  H112  1  0.18830000  0.86980000  0.33720000  1.0
  H  H113  1  0.20720000  0.50400000  0.89380000  1.0
  H  H114  1  0.91880000  0.93770000  0.53550000  1.0
  H  H115  1  0.42940000  0.99320000  0.56360000  1.0
  H  H116  1  0.21870000  0.24370000  0.79130000  1.0
  H  H117  1  0.05810000  0.83720000  0.13020000  1.0
  H  H118  1  0.32980000  0.87680000  0.78860000  1.0
  H  H119  1  0.79570000  0.62760000  0.75500000  1.0
  H  H120  1  0.87580000  0.95340000  0.28620000  1.0
  H  H121  1  0.83800000  0.28620000  0.54660000  1.0
  H  H122  1  0.89900000  0.85770000  0.27730000  1.0
  H  H123  1  0.99300000  0.43640000  0.49320000  1.0
  H  H124  1  0.82920000  0.78620000  0.04660000  1.0
  H  H125  1  0.50220000  0.92890000  0.36910000  1.0
  H  H126  1  0.55860000  0.80990000  0.04070000  1.0
  H  H127  1  0.71880000  0.02190000  0.70610000  1.0
  H  H128  1  0.17630000  0.72270000  0.35770000  1.0
  H  H129  1  0.20430000  0.37240000  0.24500000  1.0
  H  H130  1  0.28880000  0.60620000  0.50400000  1.0
  H  H131  1  0.10470000  0.36980000  0.83720000  1.0
  H  H132  1  0.50480000  0.37680000  0.28860000  1.0
  H  H133  1  0.37050000  0.46060000  0.85740000  1.0
  H  H134  1  0.46420000  0.63360000  0.16080000  1.0
  H  H135  1  0.49040000  0.06070000  0.48350000  1.0
  H  H136  1  0.68420000  0.13710000  0.86410000  1.0
  H  H137  1  0.81150000  0.96060000  0.35740000  1.0
  H  H138  1  0.85650000  0.03550000  0.06230000  1.0
  H  H139  1  0.53580000  0.36640000  0.83920000  1.0
  H  H140  1  0.85040000  0.97330000  0.03090000  1.0
  H  H141  1  0.21550000  0.53670000  0.97430000  1.0
  H  H142  1  0.09080000  0.30990000  0.54070000  1.0
  H  H143  1  0.81020000  0.97430000  0.96330000  1.0
  H  H144  1  0.11840000  0.21140000  0.37680000  1.0
  H  H145  1  0.46540000  0.56070000  0.98350000  1.0
  H  H146  1  0.48150000  0.87960000  0.99820000  1.0
  H  H147  1  0.83110000  0.35740000  0.53940000  1.0
  H  H148  1  0.14960000  0.02670000  0.96910000  1.0
  H  H149  1  0.79280000  0.49600000  0.10620000  1.0
  H  H150  1  0.63890000  0.50180000  0.87960000  1.0
  H  H151  1  0.99000000  0.79130000  0.25630000  1.0
  H  H152  1  0.38500000  0.78310000  0.62430000  1.0
  H  H153  1  0.04750000  0.60970000  0.86190000  1.0
  H  H154  1  0.05320000  0.52190000  0.20610000  1.0
  H  H155  1  0.00700000  0.56360000  0.50680000  1.0
  H  H156  1  0.81170000  0.13020000  0.66280000  1.0
  H  H157  1  0.87130000  0.63090000  0.42890000  1.0
  H  H158  1  0.10500000  0.99600000  0.60620000  1.0
  H  H159  1  0.49520000  0.62320000  0.71140000  1.0
  H  H160  1  0.89500000  0.00400000  0.39380000  1.0
  H  H161  1  0.25930000  0.79390000  0.02190000  1.0
  H  H162  1  0.65720000  0.36190000  0.39030000  1.0
  H  H163  1  0.48620000  0.50680000  0.93640000  1.0
  H  H164  1  0.10100000  0.14230000  0.72270000  1.0
  H  H165  1  0.89200000  0.56230000  0.96450000  1.0
  H  H166  1  0.54150000  0.71890000  0.41030000  1.0
  H  H167  1  0.12870000  0.36910000  0.57110000  1.0
  H  H168  1  0.67830000  0.87240000  0.74500000  1.0
  H  H169  1  0.17080000  0.21380000  0.95340000  1.0
  H  H170  1  0.82130000  0.36410000  0.86290000  1.0
  H  H171  1  0.32580000  0.64460000  0.68020000  1.0
  H  H172  1  0.77350000  0.03670000  0.47430000  1.0
  H  H173  1  0.61540000  0.54660000  0.21380000  1.0
  H  H174  1  0.95180000  0.58970000  0.21890000  1.0
  H  H175  1  0.89900000  0.89380000  0.99600000  1.0
  H  H176  1  0.67420000  0.35540000  0.31980000  1.0
  H  H177  1  0.12420000  0.04660000  0.71380000  1.0
  H  H178  1  0.18980000  0.02570000  0.03670000  1.0
  H  H179  1  0.43110000  0.86910000  0.07110000  1.0
  H  H180  1  0.53760000  0.70870000  0.24370000  1.0
  H  H181  1  0.00930000  0.37570000  0.28310000  1.0
  H  H182  1  0.24330000  0.22270000  0.85770000  1.0
  H  H183  1  0.82370000  0.53090000  0.02670000  1.0
  H  H184  1  0.57670000  0.74500000  0.62760000  1.0
  H  H185  1  0.99400000  0.68020000  0.85540000  1.0
  H  H186  1  0.75860000  0.86640000  0.33920000  1.0
  H  H187  1  0.88130000  0.96910000  0.47330000  1.0
  H  H188  1  0.75370000  0.25630000  0.70870000  1.0
  H  H189  1  0.22650000  0.96330000  0.52570000  1.0
  H  H190  1  0.14070000  0.37960000  0.49820000  1.0
  H  H191  1  0.24140000  0.13360000  0.66080000  1.0
  H  H192  1  0.89530000  0.63020000  0.16280000  1.0
  H  H193  1  0.90920000  0.69010000  0.45930000  1.0
  H  H194  1  0.88160000  0.78860000  0.62320000  1.0
  H  H195  1  0.36850000  0.54070000  0.19010000  1.0
  H  H196  1  0.10800000  0.43770000  0.03550000  1.0
  H  H197  1  0.40070000  0.04070000  0.69010000  1.0
  H  H198  1  0.82930000  0.21890000  0.91030000  1.0
  H  H199  1  0.94680000  0.47810000  0.79390000  1.0
  H  H200  1  0.97390000  0.51650000  0.56070000  1.0
  H  H201  1  0.65090000  0.68790000  0.58570000  1.0
  H  H202  1  0.54570000  0.53550000  0.56230000  1.0
  H  H203  1  0.01910000  0.89030000  0.63810000  1.0
  H  H204  1  0.35460000  0.52670000  0.46910000  1.0
  H  H205  1  0.62500000  0.83920000  0.13360000  1.0
  H  H206  1  0.18850000  0.03940000  0.64260000  1.0
  H  H207  1  0.85930000  0.62040000  0.50180000  1.0
  H  H208  1  0.73960000  0.08970000  0.71890000  1.0
  H  H209  1  0.30020000  0.57110000  0.13090000  1.0
  H  H210  1  0.02610000  0.48350000  0.43930000  1.0
  H  H211  1  0.51850000  0.12040000  0.00180000  1.0
  H  H212  1  0.98090000  0.10970000  0.36190000  1.0
  H  H213  1  0.46240000  0.29130000  0.75630000  1.0
  H  H214  1  0.44930000  0.75500000  0.87240000  1.0
  H  H215  1  0.17870000  0.63590000  0.13710000  1.0
  C  C216  1  0.72146000  0.58843000  0.67945000  1.0
  C  C217  1  0.41581000  0.75980000  0.60738000  1.0
  C  C218  1  0.92694000  0.27308000  0.07844000  1.0
  C  C219  1  0.61581000  0.90978000  0.27200000  1.0
  C  C220  1  0.90507000  0.11782000  0.91184000  1.0
  C  C221  1  0.68305000  0.91461000  0.58589000  1.0
  C  C222  1  0.19726000  0.65644000  0.26684000  1.0
  C  C223  1  0.90109000  0.15819000  0.89643000  1.0
  C  C224  1  0.99462000  0.07844000  0.22692000  1.0
  C  C225  1  0.84186000  0.58452000  0.79716000  1.0
  C  C226  1  0.33390000  0.89955000  0.88425000  1.0
  C  C227  1  0.48557000  0.19114000  0.93252000  1.0
  C  C228  1  0.68790000  0.52412000  0.15648000  1.0
  C  C229  1  0.85635000  0.47502000  0.19528000  1.0
  C  C230  1  0.76530000  0.51271000  0.26449000  1.0
  C  C231  1  0.88307000  0.83487000  0.29399000  1.0
  C  C232  1  0.38419000  0.09022000  0.72800000  1.0
  C  C233  1  0.96651000  0.62207000  0.87031000  1.0
  C  C234  1  0.79288000  0.04859000  0.61205000  1.0
  C  C235  1  0.97203000  0.57929000  0.19185000  1.0
  C  C236  1  0.11219000  0.27200000  0.59022000  1.0
  C  C237  1  0.84821000  0.60253000  0.52445000  1.0
  C  C238  1  0.67671000  0.43252000  0.80886000  1.0
  C  C239  1  0.58419000  0.24020000  0.39262000  1.0
  C  C240  1  0.68355000  0.58539000  0.91411000  1.0
  C  C241  1  0.78270000  0.80548000  0.35632000  1.0
  C  C242  1  0.43736000  0.84369000  0.08499000  1.0
  C  C243  1  0.94837000  0.19528000  0.02498000  1.0
  C  C244  1  0.46200000  0.41665000  0.61295000  1.0
  C  C245  1  0.73106000  0.58589000  0.58539000  1.0
  C  C246  1  0.48231000  0.29505000  0.78233000  1.0
  C  C247  1  0.21815000  0.11575000  0.39955000  1.0
  C  C248  1  0.72354000  0.91548000  0.70284000  1.0
  C  C249  1  0.44868000  0.30815000  0.57929000  1.0
  C  C250  1  0.96618000  0.83580000  0.63344000  1.0
  C  C251  1  0.38871000  0.39636000  0.34122000  1.0
  C  C252  1  0.81961000  0.99879000  0.97539000  1.0
  C  C253  1  0.52454000  0.55885000  0.95947000  1.0
  C  C254  1  0.09415000  0.02808000  0.69882000  1.0
  C  C255  1  0.58266000  0.53536000  0.53452000  1.0
  C  C256  1  0.80352000  0.02828000  0.57128000  1.0
  C  C257  1  0.30049000  0.46428000  0.54754000  1.0
  C  C258  1  0.11802000  0.03452000  0.46464000  1.0
  C  C259  1  0.96533000  0.46113000  0.81621000  1.0
  C  C260  1  0.97335000  0.97502000  0.69528000  1.0
  C  C261  1  0.37480000  0.42872000  0.52828000  1.0
  C  C262  1  0.20712000  0.95141000  0.38795000  1.0
  C  C263  1  0.05928000  0.39643000  0.84181000  1.0
  C  C264  1  0.51769000  0.70495000  0.21767000  1.0
  C  C265  1  0.82294000  0.29399000  0.66513000  1.0
  C  C266  1  0.59980000  0.58859000  0.95161000  1.0
  C  C267  1  0.54555000  0.22925000  0.87045000  1.0
  C  C268  1  0.61128000  0.31103000  0.89421000  1.0
  C  C269  1  0.17561000  0.10738000  0.24020000  1.0
  C  C270  1  0.92769000  0.42007000  0.24755000  1.0
  C  C271  1  0.52772000  0.34007000  0.83109000  1.0
  C  C272  1  0.45445000  0.77075000  0.12955000  1.0
  C  C273  1  0.92505000  0.61295000  0.08335000  1.0
  C  C274  1  0.51443000  0.80886000  0.06748000  1.0
  C  C275  1  0.57354000  0.68379000  0.46113000  1.0
  C  C276  1  0.78154000  0.18379000  0.96113000  1.0
  C  C277  1  0.62054000  0.84356000  0.23316000  1.0
  C  C278  1  0.18039000  0.00121000  0.02461000  1.0
  C  C279  1  0.44859000  0.95161000  0.91141000  1.0
  C  C280  1  0.78798000  0.34352000  0.52412000  1.0
  C  C281  1  0.87830000  0.81727000  0.62053000  1.0
  C  C282  1  0.18309000  0.91184000  0.38218000  1.0
  C  C283  1  0.60507000  0.28724000  0.44482000  1.0
  C  C284  1  0.42646000  0.31621000  0.53887000  1.0
  C  C285  1  0.58818000  0.85632000  0.19452000  1.0
  C  C286  1  0.34776000  0.74755000  0.57993000  1.0
  C  C287  1  0.63091000  0.16051000  0.87567000  1.0
  C  C288  1  0.09692000  0.52828000  0.07128000  1.0
  C  C289  1  0.47546000  0.44115000  0.04053000  1.0
  C  C290  1  0.66610000  0.10045000  0.11575000  1.0
  C  C291  1  0.31645000  0.41461000  0.08589000  1.0
  C  C292  1  0.72199000  0.23551000  0.51271000  1.0
  C  C293  1  0.40091000  0.32055000  0.08843000  1.0
  C  C294  1  0.16709000  0.33949000  0.62433000  1.0
  C  C295  1  0.81840000  0.47539000  0.00121000  1.0
  C  C296  1  0.89077000  0.69114000  0.43252000  1.0
  C  C297  1  0.87865000  0.11295000  0.58335000  1.0
  C  C298  1  0.45571000  0.34181000  0.60357000  1.0
  C  C299  1  0.83180000  0.07128000  0.97172000  1.0
  C  C300  1  0.16318000  0.87031000  0.87793000  1.0
  C  C301  1  0.79998000  0.42156000  0.27308000  1.0
  C  C302  1  0.45714000  0.05885000  0.45947000  1.0
  C  C303  1  0.14308000  0.01615000  0.50169000  1.0
  C  C304  1  0.79752000  0.10357000  0.65819000  1.0
  C  C305  1  0.50414000  0.02665000  0.43187000  1.0
  C  C306  1  0.37634000  0.76292000  0.89060000  1.0
  C  C307  1  0.62366000  0.23708000  0.10940000  1.0
  C  C308  1  0.49586000  0.97335000  0.56813000  1.0
  C  C309  1  0.51193000  0.66513000  0.20601000  1.0
  C  C310  1  0.25733000  0.96113000  0.31621000  1.0
  C  C311  1  0.13902000  0.64368000  0.30548000  1.0
  C  C312  1  0.91666000  0.00280000  0.36488000  1.0
  C  C313  1  0.41600000  0.12955000  0.72925000  1.0
  C  C314  1  0.68348000  0.81103000  0.39421000  1.0
  C  C315  1  0.76655000  0.61575000  0.89955000  1.0
  C  C316  1  0.92255000  0.76482000  0.42828000  1.0
  C  C317  1  0.51066000  0.08843000  0.17945000  1.0
  C  C318  1  0.61770000  0.60045000  0.61575000  1.0
  C  C319  1  0.05163000  0.80472000  0.97502000  1.0
  C  C320  1  0.07306000  0.72692000  0.92156000  1.0
  C  C321  1  0.36000000  0.08859000  0.45161000  1.0
  C  C322  1  0.88282000  0.53452000  0.96464000  1.0
  C  C323  1  0.55141000  0.04839000  0.08859000  1.0
  C  C324  1  0.73536000  0.78233000  0.20495000  1.0
  C  C325  1  0.42114000  0.98460000  0.87892000  1.0
  C  C326  1  0.00538000  0.92156000  0.77308000  1.0
  C  C327  1  0.72988000  0.28078000  0.50406000  1.0
  C  C328  1  0.49342000  0.87567000  0.33949000  1.0
  C  C329  1  0.47014000  0.26292000  0.39060000  1.0
  C  C330  1  0.31652000  0.18897000  0.60579000  1.0
  C  C331  1  0.31210000  0.47588000  0.84352000  1.0
  C  C332  1  0.48934000  0.91157000  0.82055000  1.0
  C  C333  1  0.20703000  0.69882000  0.47192000  1.0
  C  C334  1  0.21534000  0.48460000  0.37892000  1.0
  C  C335  1  0.15254000  0.96464000  0.96548000  1.0
  C  C336  1  0.09531000  0.07993000  0.25245000  1.0
  C  C337  1  0.27801000  0.76449000  0.48729000  1.0
  C  C338  1  0.35881000  0.16891000  0.84007000  1.0
  C  C339  1  0.72993000  0.65878000  0.89636000  1.0
  C  C340  1  0.12135000  0.88705000  0.41665000  1.0
  C  C341  1  0.15197000  0.54754000  0.03572000  1.0
  C  C342  1  0.15814000  0.41548000  0.20284000  1.0
  C  C343  1  0.30006000  0.12108000  0.48460000  1.0
  C  C344  1  0.97681000  0.60738000  0.74020000  1.0
  C  C345  1  0.41734000  0.46464000  0.46548000  1.0
  C  C346  1  0.90469000  0.92007000  0.74755000  1.0
  C  C347  1  0.20002000  0.57844000  0.72692000  1.0
  C  C348  1  0.15179000  0.39747000  0.47555000  1.0
  C  C349  1  0.79142000  0.37567000  0.83949000  1.0
  C  C350  1  0.95750000  0.01271000  0.76449000  1.0
  C  C351  1  0.13150000  0.02412000  0.65648000  1.0
  C  C352  1  0.38230000  0.39955000  0.38425000  1.0
  C  C353  1  0.08339000  0.45947000  0.44115000  1.0
  C  C354  1  0.91661000  0.54053000  0.55885000  1.0
  C  C355  1  0.84438000  0.84352000  0.02412000  1.0
  C  C356  1  0.86098000  0.35632000  0.69452000  1.0
  C  C357  1  0.16287000  0.78724000  0.94482000  1.0
  C  C358  1  0.82439000  0.89262000  0.75980000  1.0
  C  C359  1  0.46266000  0.47335000  0.06813000  1.0
  C  C360  1  0.55132000  0.69185000  0.42071000  1.0
  C  C361  1  0.28299000  0.74020000  0.89262000  1.0
  C  C362  1  0.81691000  0.08816000  0.61782000  1.0
  C  C363  1  0.21202000  0.65648000  0.47588000  1.0
  C  C364  1  0.68139000  0.08949000  0.53733000  1.0
  C  C365  1  0.55550000  0.30548000  0.85632000  1.0
  C  C366  1  0.54429000  0.65819000  0.39643000  1.0
  C  C367  1  0.01472000  0.21922000  0.99594000  1.0
  C  C368  1  0.15853000  0.88795000  0.04859000  1.0
  C  C369  1  0.78434000  0.49720000  0.13512000  1.0
  C  C370  1  0.03349000  0.37793000  0.12969000  1.0
  C  C371  1  0.95011000  0.44482000  0.21276000  1.0
  C  C372  1  0.40234000  0.91411000  0.91461000  1.0
  C  C373  1  0.47519000  0.89747000  0.97555000  1.0
  C  C374  1  0.52559000  0.77200000  0.09022000  1.0
  C  C375  1  0.10923000  0.30886000  0.56748000  1.0
  C  C376  1  0.83713000  0.21276000  0.05518000  1.0
  C  C377  1  0.04989000  0.55518000  0.78724000  1.0
  C  C378  1  0.26694000  0.10940000  0.26292000  1.0
  C  C379  1  0.17524000  0.75245000  0.92007000  1.0
  C  C380  1  0.80274000  0.34356000  0.73316000  1.0
  C  C381  1  0.31695000  0.08539000  0.41411000  1.0
  C  C382  1  0.02319000  0.39262000  0.25980000  1.0
  C  C383  1  0.53079000  0.93187000  0.97335000  1.0
  C  C384  1  0.87777000  0.80118000  0.02808000  1.0
  C  C385  1  0.14365000  0.52498000  0.80472000  1.0
  C  C386  1  0.50658000  0.12433000  0.66051000  1.0
  C  C387  1  0.50549000  0.10579000  0.81103000  1.0
  C  C388  1  0.48401000  0.04053000  0.05885000  1.0
  C  C389  1  0.46921000  0.06813000  0.02665000  1.0
  C  C390  1  0.71794000  0.79399000  0.16513000  1.0
  C  C391  1  0.40493000  0.38795000  0.54859000  1.0
  C  C392  1  0.28154000  0.63512000  0.50280000  1.0
  C  C393  1  0.23394000  0.49594000  0.78078000  1.0
  C  C394  1  0.47228000  0.65993000  0.16891000  1.0
  C  C395  1  0.21493000  0.15878000  0.39636000  1.0
  C  C396  1  0.71701000  0.25980000  0.10738000  1.0
  C  C397  1  0.02665000  0.02498000  0.30472000  1.0
  C  C398  1  0.31263000  0.07172000  0.76482000  1.0
  C  C399  1  0.02797000  0.42071000  0.80815000  1.0
  C  C400  1  0.64119000  0.83109000  0.15993000  1.0
  C  C401  1  0.78185000  0.88425000  0.60045000  1.0
  C  C402  1  0.19179000  0.58949000  0.03733000  1.0
  C  C403  1  0.59426000  0.62108000  0.98460000  1.0
  C  C404  1  0.43473000  0.38218000  0.58816000  1.0
  C  C405  1  0.98934000  0.99594000  0.28078000  1.0
  C  C406  1  0.53590000  0.26684000  0.84356000  1.0
  C  C407  1  0.80198000  0.13344000  0.16420000  1.0
  C  C408  1  0.79500000  0.02461000  0.49879000  1.0
  C  C409  1  0.38435000  0.26482000  0.92828000  1.0
  C  C410  1  0.56527000  0.61782000  0.41184000  1.0
  C  C411  1  0.23523000  0.95246000  0.46428000  1.0
  C  C412  1  0.44450000  0.69452000  0.14368000  1.0
  C  C413  1  0.84746000  0.03536000  0.03452000  1.0
  C  C414  1  0.77088000  0.03733000  0.91051000  1.0
  C  C415  1  0.02979000  0.73551000  0.01271000  1.0
  C  C416  1  0.14630000  0.23316000  0.65644000  1.0
  C  C417  1  0.37946000  0.15644000  0.76684000  1.0
  C  C418  1  0.93601000  0.56813000  0.52665000  1.0
  C  C419  1  0.29379000  0.50121000  0.52461000  1.0
  C  C420  1  0.20858000  0.62433000  0.16051000  1.0
  C  C421  1  0.75683000  0.07929000  0.69185000  1.0
  C  C422  1  0.21872000  0.46267000  0.58949000  1.0
  C  C423  1  0.11718000  0.46548000  0.03536000  1.0
  C  C424  1  0.54286000  0.94115000  0.54053000  1.0
  C  C425  1  0.59507000  0.61205000  0.45141000  1.0
  C  C426  1  0.84077000  0.99831000  0.01615000  1.0
  C  C427  1  0.69951000  0.53572000  0.45246000  1.0
  C  C428  1  0.21730000  0.19452000  0.64368000  1.0
  C  C429  1  0.69994000  0.87892000  0.51540000  1.0
  C  C430  1  0.24317000  0.92071000  0.30815000  1.0
  C  C431  1  0.06399000  0.43187000  0.47335000  1.0
  C  C432  1  0.13221000  0.66891000  0.34007000  1.0
  C  C433  1  0.81610000  0.68273000  0.87947000  1.0
  C  C434  1  0.66863000  0.30472000  0.47502000  1.0
  C  C435  1  0.45074000  0.02445000  0.39747000  1.0
  C  C436  1  0.27012000  0.71922000  0.49594000  1.0
  C  C437  1  0.20248000  0.89643000  0.34181000  1.0
  C  C438  1  0.38872000  0.68897000  0.10579000  1.0
  C  C439  1  0.81231000  0.03572000  0.95246000  1.0
  C  C440  1  0.47441000  0.22800000  0.90978000  1.0
  C  C441  1  0.40038000  0.63344000  0.66420000  1.0
  C  C442  1  0.88781000  0.72800000  0.40978000  1.0
  C  C443  1  0.64000000  0.91141000  0.54839000  1.0
  C  C444  1  0.18390000  0.31727000  0.12053000  1.0
  C  C445  1  0.37371000  0.89636000  0.84122000  1.0
  C  C446  1  0.71895000  0.41501000  0.84369000  1.0
  C  C447  1  0.61129000  0.60364000  0.65878000  1.0
  C  C448  1  0.86604000  0.65631000  0.41501000  1.0
  C  C449  1  0.91946000  0.86488000  0.99720000  1.0
  C  C450  1  0.07231000  0.57993000  0.75245000  1.0
  C  C451  1  0.12170000  0.18273000  0.37947000  1.0
  C  C452  1  0.86850000  0.97588000  0.34352000  1.0
  C  C453  1  0.94031000  0.79505000  0.28233000  1.0
  C  C454  1  0.41142000  0.62969000  0.62207000  1.0
  C  C455  1  0.29759000  0.59022000  0.22800000  1.0
  C  C456  1  0.86074000  0.60940000  0.76292000  1.0
  C  C457  1  0.95352000  0.45141000  0.88795000  1.0
  C  C458  1  0.27854000  0.41157000  0.32055000  1.0
  C  C459  1  0.37266000  0.47555000  0.10253000  1.0
  C  C460  1  0.26894000  0.41411000  0.41461000  1.0
  C  C461  1  0.77480000  0.37045000  0.77075000  1.0
  C  C462  1  0.76477000  0.04754000  0.53572000  1.0
  C  C463  1  0.56264000  0.15631000  0.91501000  1.0
  C  C464  1  0.09891000  0.84181000  0.10357000  1.0
  C  C465  1  0.51599000  0.95947000  0.94115000  1.0
  C  C466  1  0.89231000  0.94482000  0.71276000  1.0
  C  C467  1  0.08054000  0.13512000  0.00280000  1.0
  C  C468  1  0.16820000  0.92872000  0.02828000  1.0
  C  C469  1  0.95889000  0.87793000  0.62969000  1.0
  C  C470  1  0.13926000  0.39060000  0.23708000  1.0
  C  C471  1  0.73306000  0.89060000  0.73708000  1.0
  C  C472  1  0.26464000  0.21767000  0.79505000  1.0
  C  C473  1  0.83908000  0.51615000  0.00169000  1.0
  C  C474  1  0.07745000  0.23518000  0.57172000  1.0
  C  C475  1  0.01066000  0.00406000  0.71922000  1.0
  C  C476  1  0.49883000  0.37947000  0.31727000  1.0
  C  C477  1  0.80112000  0.84007000  0.33109000  1.0
  C  C478  1  0.30989000  0.17945000  0.41157000  1.0
  C  C479  1  0.23345000  0.38425000  0.10045000  1.0
  C  C480  1  0.36098000  0.79716000  0.91548000  1.0
  C  C481  1  0.19648000  0.97172000  0.42872000  1.0
  C  C482  1  0.28206000  0.20601000  0.83487000  1.0
  C  C483  1  0.19888000  0.15993000  0.66891000  1.0
  C  C484  1  0.62520000  0.57128000  0.47172000  1.0
  C  C485  1  0.50117000  0.62053000  0.68273000  1.0
  C  C486  1  0.13396000  0.34369000  0.58499000  1.0
  C  C487  1  0.35083000  0.57172000  0.26482000  1.0
  C  C488  1  0.46410000  0.73316000  0.15644000  1.0
  C  C489  1  0.07495000  0.38705000  0.91665000  1.0
  C  C490  1  0.15923000  0.00169000  0.98385000  1.0
  C  C491  1  0.02289000  0.41184000  0.88218000  1.0
  C  C492  1  0.12223000  0.19882000  0.97192000  1.0
  C  C493  1  0.40020000  0.41141000  0.04839000  1.0
  C  C494  1  0.41809000  0.06748000  0.69114000  1.0
  C  C495  1  0.83682000  0.12969000  0.12207000  1.0
  C  C496  1  0.47765000  0.08499000  0.65631000  1.0
  C  C497  1  0.92231000  0.39421000  0.68897000  1.0
  C  C498  1  0.40574000  0.37892000  0.01540000  1.0
  C  C499  1  0.69557000  0.12053000  0.18273000  1.0
  C  C500  1  0.84147000  0.11205000  0.95141000  1.0
  C  C501  1  0.39493000  0.71276000  0.55518000  1.0
  C  C502  1  0.77736000  0.28233000  0.70495000  1.0
  C  C503  1  0.64477000  0.49831000  0.51615000  1.0
  C  C504  1  0.68737000  0.92828000  0.23518000  1.0
  C  C505  1  0.58400000  0.87045000  0.27075000  1.0
  C  C506  1  0.78507000  0.84122000  0.60364000  1.0
  C  C507  1  0.17706000  0.70601000  0.33487000  1.0
  C  C508  1  0.53734000  0.52665000  0.93187000  1.0
  C  C509  1  0.79297000  0.30118000  0.52808000  1.0
  C  C510  1  0.15562000  0.15648000  0.97588000  1.0
  C  C511  1  0.81161000  0.54839000  0.58859000  1.0
  C  C512  1  0.32105000  0.47192000  0.80118000  1.0
  C  C513  1  0.84803000  0.45246000  0.96428000  1.0
  C  C514  1  0.78128000  0.53733000  0.41051000  1.0
  C  C515  1  0.18160000  0.52461000  0.99879000  1.0
  C  C516  1  0.03467000  0.53887000  0.18379000  1.0
  C  C517  1  0.22912000  0.96267000  0.08949000  1.0
  C  C518  1  0.27007000  0.34122000  0.10364000  1.0
  C  C519  1  0.78466000  0.51540000  0.62108000  1.0
  C  C520  1  0.05969000  0.20495000  0.71767000  1.0
  C  C521  1  0.90308000  0.47172000  0.92872000  1.0
  C  C522  1  0.06458000  0.33580000  0.13344000  1.0
  C  C523  1  0.21846000  0.81621000  0.03887000  1.0
  C  C524  1  0.36909000  0.83949000  0.12433000  1.0
  C  C525  1  0.97711000  0.58816000  0.11782000  1.0
  C  C526  1  0.35523000  0.50169000  0.48385000  1.0
  C  C527  1  0.76606000  0.50406000  0.21922000  1.0
  C  C528  1  0.19802000  0.86656000  0.83580000  1.0
  C  C529  1  0.21566000  0.50280000  0.86488000  1.0
  C  C530  1  0.52986000  0.73708000  0.60940000  1.0
  C  C531  1  0.74267000  0.03887000  0.68379000  1.0
  C  C532  1  0.59962000  0.36656000  0.33580000  1.0
  C  C533  1  0.85370000  0.76684000  0.34356000  1.0
  C  C534  1  0.31861000  0.91051000  0.46267000  1.0
  C  C535  1  0.98528000  0.78078000  0.00406000  1.0
  C  C536  1  0.62629000  0.10364000  0.15878000  1.0
  C  C537  1  0.27646000  0.08452000  0.29716000  1.0
  C  C538  1  0.49451000  0.89421000  0.18897000  1.0
  C  C539  1  0.85692000  0.98385000  0.49831000  1.0
  C  C540  1  0.04111000  0.12207000  0.37031000  1.0
  C  C541  1  0.28105000  0.58499000  0.15631000  1.0
  C  C542  1  0.54926000  0.97555000  0.60253000  1.0
  C  C543  1  0.62734000  0.52445000  0.89747000  1.0
  C  C544  1  0.70241000  0.40978000  0.77200000  1.0
  C  C545  1  0.52235000  0.91501000  0.34369000  1.0
  C  C546  1  0.94072000  0.60357000  0.15819000  1.0
  C  C547  1  0.00840000  0.91665000  0.11295000  1.0
  C  C548  1  0.20500000  0.97539000  0.50121000  1.0
  C  C549  1  0.23470000  0.48729000  0.73551000  1.0
  C  C550  1  0.48807000  0.33487000  0.79399000  1.0
  C  C551  1  0.85475000  0.72925000  0.37045000  1.0
  C  C552  1  0.58858000  0.37031000  0.37793000  1.0
  C  C553  1  0.58191000  0.93252000  0.30886000  1.0
  C  C554  1  0.30443000  0.87947000  0.81727000  1.0
  C  C555  1  0.63902000  0.20284000  0.08452000  1.0
  C  C556  1  0.71846000  0.36488000  0.49720000  1.0
  C  C557  1  0.08334000  0.99720000  0.63512000  1.0
  C  C558  1  0.90585000  0.97192000  0.30118000  1.0
  C  C559  1  0.09493000  0.88218000  0.08816000  1.0
  C  C560  1  0.83291000  0.66051000  0.37567000  1.0
  C  C561  1  0.18839000  0.45161000  0.41141000  1.0
  C  C562  1  0.11693000  0.16513000  0.70601000  1.0
  C  C563  1  0.67895000  0.52808000  0.19882000  1.0
  C  C564  1  0.61565000  0.73518000  0.07172000  1.0
  C  C565  1  0.10769000  0.05518000  0.28724000  1.0
  C  C566  1  0.69011000  0.82055000  0.58843000  1.0
  C  C567  1  0.14525000  0.27075000  0.62955000  1.0
  C  C568  1  0.16388000  0.80815000  0.07929000  1.0
  C  C569  1  0.86779000  0.33109000  0.65993000  1.0
  C  C570  1  0.33137000  0.69528000  0.52498000  1.0
  C  C571  1  0.32329000  0.56748000  0.19114000  1.0
  C  C572  1  0.03382000  0.16420000  0.36656000  1.0
  C  C573  1  0.83612000  0.19185000  0.92071000  1.0
  C  C574  1  0.07769000  0.60579000  0.31103000  1.0
  C  C575  1  0.64917000  0.42828000  0.73518000  1.0
  C  C576  1  0.57886000  0.01540000  0.12108000  1.0
  C  C577  1  0.04648000  0.54859000  0.11205000  1.0
  C  C578  1  0.16092000  0.48385000  0.99831000  1.0
  C  C579  1  0.04250000  0.98729000  0.23551000  1.0
  C  C580  1  0.97021000  0.26449000  0.98729000  1.0
  C  C581  1  0.22264000  0.71767000  0.29505000  1.0
  C  C582  1  0.70621000  0.49879000  0.47539000  1.0
  C  C583  1  0.80821000  0.41051000  0.96267000  1.0
  C  C584  1  0.88198000  0.96548000  0.53536000  1.0
  C  C585  1  0.57362000  0.70284000  0.58452000  1.0
  C  C586  1  0.65224000  0.25245000  0.42007000  1.0
  C  C587  1  0.22520000  0.62955000  0.22925000  1.0
  C  C588  1  0.99160000  0.08335000  0.88705000  1.0
  C  C589  1  0.82476000  0.24755000  0.07993000  1.0
  C  C590  1  0.59766000  0.08589000  0.08539000  1.0
  C  C591  1  0.18769000  0.96428000  0.04754000  1.0
  C  C592  1  0.59909000  0.67945000  0.91157000  1.0
  C  C593  1  0.52481000  0.10253000  0.02445000  1.0
  C  C594  1  0.53800000  0.58335000  0.38705000  1.0
  C  C595  1  0.93542000  0.66420000  0.86656000  1.0
  C  C596  1  0.42638000  0.29716000  0.41548000  1.0
  C  C597  1  0.41182000  0.14368000  0.80548000  1.0
  N  N598  1  0.50357000  0.26166000  0.80620000  1.0
  N  N599  1  0.66037000  0.34624000  0.47242000  1.0
  N  N600  1  0.99339000  0.02758000  0.34624000  1.0
  N  N601  1  0.58784000  0.11170000  0.05322000  1.0
  N  N602  1  0.93530000  0.55809000  0.80971000  1.0
  N  N603  1  0.76523000  0.30620000  0.73834000  1.0
  N  N604  1  0.06470000  0.44191000  0.19029000  1.0
  N  N605  1  0.30977000  0.19380000  0.76166000  1.0
  N  N606  1  0.30046000  0.44678000  0.11170000  1.0
  N  N607  1  0.47877000  0.14653000  0.69573000  1.0
  N  N608  1  0.13276000  0.09768000  0.38580000  1.0
  N  N609  1  0.84128000  0.07108000  0.01296000  1.0
  N  N610  1  0.25276000  0.38830000  0.44678000  1.0
  N  N611  1  0.64106000  0.94678000  0.61170000  1.0
  N  N612  1  0.80310000  0.94191000  0.69029000  1.0
  N  N613  1  0.57468000  0.57108000  0.51296000  1.0
  N  N614  1  0.76956000  0.11420000  0.09768000  1.0
  N  N615  1  0.11624000  0.40232000  0.11420000  1.0
  N  N616  1  0.52123000  0.85347000  0.30427000  1.0
  N  N617  1  0.40697000  0.35521000  0.52345000  1.0
  N  N618  1  0.86721000  0.47242000  0.15376000  1.0
  N  N619  1  0.59303000  0.64479000  0.47655000  1.0
  N  N620  1  0.74501000  0.19029000  0.05809000  1.0
  N  N621  1  0.76218000  0.02345000  0.64479000  1.0
  N  N622  1  0.50661000  0.69029000  0.55809000  1.0
  N  N623  1  0.78563000  0.14479000  0.97655000  1.0
  N  N624  1  0.23044000  0.88580000  0.90232000  1.0
  N  N625  1  0.69023000  0.80620000  0.23834000  1.0
  N  N626  1  0.19690000  0.05809000  0.30971000  1.0
  N  N627  1  0.41216000  0.88830000  0.94678000  1.0
  N  N628  1  0.42532000  0.42892000  0.48704000  1.0
  N  N629  1  0.35894000  0.05322000  0.38830000  1.0
  N  N630  1  0.00661000  0.97242000  0.65376000  1.0
  N  N631  1  0.08764000  0.48704000  0.07108000  1.0
  N  N632  1  0.17450000  0.30427000  0.64653000  1.0
  N  N633  1  0.69954000  0.55322000  0.88830000  1.0
  N  N634  1  0.23477000  0.69380000  0.26166000  1.0
  N  N635  1  0.86724000  0.90232000  0.61420000  1.0
  N  N636  1  0.93042000  0.47655000  0.85521000  1.0
  N  N637  1  0.23782000  0.97655000  0.35521000  1.0
  N  N638  1  0.02097000  0.84624000  0.97242000  1.0
  N  N639  1  0.25499000  0.80971000  0.94191000  1.0
  N  N640  1  0.97903000  0.15376000  0.02758000  1.0
  N  N641  1  0.48144000  0.38580000  0.40232000  1.0
  N  N642  1  0.85424000  0.98704000  0.57108000  1.0
  N  N643  1  0.74724000  0.61170000  0.55322000  1.0
  N  N644  1  0.49339000  0.30971000  0.44191000  1.0
  N  N645  1  0.06958000  0.52345000  0.14479000  1.0
  N  N646  1  0.91236000  0.51296000  0.92892000  1.0
  N  N647  1  0.07143000  0.23834000  0.69380000  1.0
  N  N648  1  0.14576000  0.01296000  0.42892000  1.0
  N  N649  1  0.21437000  0.85521000  0.02345000  1.0
  N  N650  1  0.62530000  0.19573000  0.85347000  1.0
  N  N651  1  0.51856000  0.61420000  0.59768000  1.0
  N  N652  1  0.15872000  0.92892000  0.98704000  1.0
  N  N653  1  0.82103000  0.35347000  0.80427000  1.0
  N  N654  1  0.13279000  0.52758000  0.84624000  1.0
  N  N655  1  0.37470000  0.80427000  0.14653000  1.0
  N  N656  1  0.49643000  0.73834000  0.19380000  1.0
  N  N657  1  0.33963000  0.65376000  0.52758000  1.0
  N  N658  1  0.17897000  0.64653000  0.19573000  1.0
  N  N659  1  0.82550000  0.69573000  0.35347000  1.0
  N  N660  1  0.92857000  0.76166000  0.30620000  1.0
  N  N661  1  0.88376000  0.59768000  0.88580000  1.0
  O  O662  1  0.14410000  0.72486000  0.00914000  1.0
  O  O663  1  0.27083000  0.21209000  0.43245000  1.0
  O  O664  1  0.36637000  0.04161000  0.78365000  1.0
  O  O665  1  0.04757000  0.28746000  0.97580000  1.0
  O  O666  1  0.69163000  0.45839000  0.71635000  1.0
  O  O667  1  0.41763000  0.09890000  0.16284000  1.0
  O  O668  1  0.29672000  0.43245000  0.28791000  1.0
  O  O669  1  0.59202000  0.71635000  0.04161000  1.0
  O  O670  1  0.49982000  0.44740000  0.59596000  1.0
  O  O671  1  0.32156000  0.71832000  0.09156000  1.0
  O  O672  1  0.71635000  0.11892000  0.51578000  1.0
  O  O673  1  0.15002000  0.21635000  0.54161000  1.0
  O  O674  1  0.31956000  0.98774000  0.86774000  1.0
  O  O675  1  0.12524000  0.50733000  0.36759000  1.0
  O  O676  1  0.71346000  0.72501000  0.08547000  1.0
  O  O677  1  0.32496000  0.48774000  0.36774000  1.0
  O  O678  1  0.30730000  0.36774000  0.01226000  1.0
  O  O679  1  0.30837000  0.54161000  0.28365000  1.0
  O  O680  1  0.41312000  0.90844000  0.21832000  1.0
  O  O681  1  0.72917000  0.78791000  0.56755000  1.0
  O  O682  1  0.62190000  0.22486000  0.50914000  1.0
  O  O683  1  0.04318000  0.05260000  0.90404000  1.0
  O  O684  1  0.03988000  0.59156000  0.28168000  1.0
  O  O685  1  0.36856000  0.21832000  0.59156000  1.0
  O  O686  1  0.97216000  0.92412000  0.81196000  1.0
  O  O687  1  0.18730000  0.13226000  0.48774000  1.0
  O  O688  1  0.48347000  0.33716000  0.09890000  1.0
  O  O689  1  0.37810000  0.77514000  0.49086000  1.0
  O  O690  1  0.10372000  0.68804000  0.92412000  1.0
  O  O691  1  0.40798000  0.28365000  0.95839000  1.0
  O  O692  1  0.42280000  0.90781000  0.44159000  1.0
  O  O693  1  0.13940000  0.84757000  0.41063000  1.0
  O  O694  1  0.71407000  0.42099000  0.25347000  1.0
  O  O695  1  0.49283000  0.63241000  0.00733000  1.0
  O  O696  1  0.34753000  0.15244000  0.59050000  1.0
  O  O697  1  0.63144000  0.78168000  0.40844000  1.0
  O  O698  1  0.79893000  0.91453000  0.22501000  1.0
  O  O699  1  0.66497000  0.52420000  0.28746000  1.0
  O  O700  1  0.68044000  0.01226000  0.13226000  1.0
  O  O701  1  0.67844000  0.28168000  0.90844000  1.0
  O  O702  1  0.41953000  0.16284000  0.40110000  1.0
  O  O703  1  0.85105000  0.38108000  0.98422000  1.0
  O  O704  1  0.96754000  0.74653000  0.92099000  1.0
  O  O705  1  0.50003000  0.90950000  0.15244000  1.0
  O  O706  1  0.33503000  0.47580000  0.71254000  1.0
  O  O707  1  0.28593000  0.57901000  0.74653000  1.0
  O  O708  1  0.09578000  0.40404000  0.94740000  1.0
  O  O709  1  0.02394000  0.77499000  0.41453000  1.0
  O  O710  1  0.10240000  0.34757000  0.91063000  1.0
  O  O711  1  0.13561000  0.44159000  0.59219000  1.0
  O  O712  1  0.59047000  0.34756000  0.90950000  1.0
  O  O713  1  0.27220000  0.59219000  0.05841000  1.0
  O  O714  1  0.90422000  0.59596000  0.05260000  1.0
  O  O715  1  0.48292000  0.93245000  0.78791000  1.0
  O  O716  1  0.89760000  0.65243000  0.08937000  1.0
  O  O717  1  0.23213000  0.48422000  0.61892000  1.0
  O  O718  1  0.63257000  0.86759000  0.49267000  1.0
  O  O719  1  0.33061000  0.94159000  0.09219000  1.0
  O  O720  1  0.83527000  0.01578000  0.88108000  1.0
  O  O721  1  0.81083000  0.21254000  0.52420000  1.0
  O  O722  1  0.40953000  0.65244000  0.09050000  1.0
  O  O723  1  0.76787000  0.51578000  0.38108000  1.0
  O  O724  1  0.58047000  0.83716000  0.59890000  1.0
  O  O725  1  0.05278000  0.90404000  0.44740000  1.0
  O  O726  1  0.66939000  0.05841000  0.90781000  1.0
  O  O727  1  0.97606000  0.22501000  0.58547000  1.0
  O  O728  1  0.06197000  0.59050000  0.34756000  1.0
  O  O729  1  0.94722000  0.09596000  0.55260000  1.0
  O  O730  1  0.20107000  0.08547000  0.77499000  1.0
  O  O731  1  0.49984000  0.00733000  0.86759000  1.0
  O  O732  1  0.02337000  0.02420000  0.78746000  1.0
  O  O733  1  0.55003000  0.58937000  0.34757000  1.0
  O  O734  1  0.84676000  0.00914000  0.77514000  1.0
  O  O735  1  0.15324000  0.99086000  0.22486000  1.0
  O  O736  1  0.02784000  0.07588000  0.18804000  1.0
  O  O737  1  0.79176000  0.42412000  0.31196000  1.0
  O  O738  1  0.11147000  0.92099000  0.75347000  1.0
  O  O739  1  0.65247000  0.84756000  0.40950000  1.0
  O  O740  1  0.97663000  0.97580000  0.21254000  1.0
  O  O741  1  0.86060000  0.15243000  0.58937000  1.0
  O  O742  1  0.41537000  0.28791000  0.06755000  1.0
  O  O743  1  0.50018000  0.55260000  0.40404000  1.0
  O  O744  1  0.44997000  0.41063000  0.65243000  1.0
  O  O745  1  0.86439000  0.55841000  0.40781000  1.0
  O  O746  1  0.69270000  0.63226000  0.98774000  1.0
  O  O747  1  0.16473000  0.98422000  0.11892000  1.0
  O  O748  1  0.14895000  0.61892000  0.01578000  1.0
  O  O749  1  0.20824000  0.57588000  0.68804000  1.0
  O  O750  1  0.63363000  0.95839000  0.21635000  1.0
  O  O751  1  0.93803000  0.40950000  0.65244000  1.0
  O  O752  1  0.70328000  0.56755000  0.71209000  1.0
  O  O753  1  0.28365000  0.88108000  0.48422000  1.0
  O  O754  1  0.58463000  0.71209000  0.93245000  1.0
  O  O755  1  0.57720000  0.09219000  0.55841000  1.0
  O  O756  1  0.89628000  0.31196000  0.07588000  1.0
  O  O757  1  0.67504000  0.51226000  0.63226000  1.0
  O  O758  1  0.58237000  0.90110000  0.83716000  1.0
  O  O759  1  0.56153000  0.41453000  0.72501000  1.0
  O  O760  1  0.51708000  0.06755000  0.21209000  1.0
  O  O761  1  0.96012000  0.40844000  0.71832000  1.0
  O  O762  1  0.50016000  0.99267000  0.13241000  1.0
  O  O763  1  0.58688000  0.09156000  0.78168000  1.0
  O  O764  1  0.95682000  0.94740000  0.09596000  1.0
  O  O765  1  0.86896000  0.50914000  0.27514000  1.0
  O  O766  1  0.49997000  0.09050000  0.84756000  1.0
  O  O767  1  0.01303000  0.08937000  0.84757000  1.0
  O  O768  1  0.03246000  0.25347000  0.07901000  1.0
  O  O769  1  0.81270000  0.86774000  0.51226000  1.0
  O  O770  1  0.51653000  0.66284000  0.90110000  1.0
  O  O771  1  0.87476000  0.49267000  0.63241000  1.0
  O  O772  1  0.72780000  0.40781000  0.94159000  1.0
  O  O773  1  0.36743000  0.13241000  0.50733000  1.0
  O  O774  1  0.13104000  0.49086000  0.72486000  1.0
  O  O775  1  0.98697000  0.91063000  0.15243000  1.0
  O  O776  1  0.84998000  0.78365000  0.45839000  1.0
  O  O777  1  0.18917000  0.78746000  0.47580000  1.0
  O  O778  1  0.50717000  0.36759000  0.99267000  1.0
  O  O779  1  0.85590000  0.27514000  0.99086000  1.0
  O  O780  1  0.28654000  0.27499000  0.91453000  1.0
  O  O781  1  0.43847000  0.58547000  0.27499000  1.0
  O  O782  1  0.95243000  0.71254000  0.02420000  1.0
  O  O783  1  0.88853000  0.07901000  0.24653000  1.0
