# generated using pymatgen
data_Co4PH24W9C36N12O29
_symmetry_space_group_name_H-M   'P 1'
_cell_length_a   29.32500000
_cell_length_b   13.41300000
_cell_length_c   36.01600000
_cell_angle_alpha   90.00000000
_cell_angle_beta   90.00000000
_cell_angle_gamma   90.00000000
_symmetry_Int_Tables_number   1
_chemical_formula_structural   Co4PH24W9C36N12O29
_chemical_formula_sum   'Co32 P8 H192 W72 C288 N96 O232'
_cell_volume   14166.39747960
_cell_formula_units_Z   8
loop_
 _symmetry_equiv_pos_site_id
 _symmetry_equiv_pos_as_xyz
  1  'x, y, z'
loop_
 _atom_site_type_symbol
 _atom_site_label
 _atom_site_symmetry_multiplicity
 _atom_site_fract_x
 _atom_site_fract_y
 _atom_site_fract_z
 _atom_site_occupancy
  Co  Co0  1  0.58652000  0.42410000  0.50472000  1.0
  Co  Co1  1  0.52105000  0.61394000  0.50706000  1.0
  Co  Co2  1  0.53013000  0.82339000  0.26149000  1.0
  Co  Co3  1  0.28432000  0.89035000  0.56523000  1.0
  Co  Co4  1  0.91348000  0.57590000  0.00472000  1.0
  Co  Co5  1  0.97895000  0.38606000  0.00706000  1.0
  Co  Co6  1  0.96987000  0.17661000  0.76149000  1.0
  Co  Co7  1  0.21568000  0.10965000  0.06523000  1.0
  Co  Co8  1  0.41348000  0.92410000  0.99528000  1.0
  Co  Co9  1  0.47895000  0.11394000  0.99294000  1.0
  Co  Co10  1  0.46987000  0.32339000  0.23851000  1.0
  Co  Co11  1  0.71568000  0.39035000  0.93477000  1.0
  Co  Co12  1  0.08652000  0.07590000  0.49528000  1.0
  Co  Co13  1  0.02105000  0.88606000  0.49294000  1.0
  Co  Co14  1  0.03013000  0.67661000  0.73851000  1.0
  Co  Co15  1  0.78432000  0.60965000  0.43477000  1.0
  Co  Co16  1  0.41348000  0.57590000  0.49528000  1.0
  Co  Co17  1  0.47895000  0.38606000  0.49294000  1.0
  Co  Co18  1  0.46987000  0.17661000  0.73851000  1.0
  Co  Co19  1  0.71568000  0.10965000  0.43477000  1.0
  Co  Co20  1  0.08652000  0.42410000  0.99528000  1.0
  Co  Co21  1  0.02105000  0.61394000  0.99294000  1.0
  Co  Co22  1  0.03013000  0.82339000  0.23851000  1.0
  Co  Co23  1  0.78432000  0.89035000  0.93477000  1.0
  Co  Co24  1  0.58652000  0.07590000  0.00472000  1.0
  Co  Co25  1  0.52105000  0.88606000  0.00706000  1.0
  Co  Co26  1  0.53013000  0.67661000  0.76149000  1.0
  Co  Co27  1  0.28432000  0.60965000  0.06523000  1.0
  Co  Co28  1  0.91348000  0.92410000  0.50472000  1.0
  Co  Co29  1  0.97895000  0.11394000  0.50706000  1.0
  Co  Co30  1  0.96987000  0.32339000  0.26149000  1.0
  Co  Co31  1  0.21568000  0.39035000  0.56523000  1.0
  P  P32  1  0.54103000  0.49170000  0.42648000  1.0
  P  P33  1  0.95897000  0.50830000  0.92648000  1.0
  P  P34  1  0.45897000  0.99170000  0.07352000  1.0
  P  P35  1  0.04103000  0.00830000  0.57352000  1.0
  P  P36  1  0.45897000  0.50830000  0.57352000  1.0
  P  P37  1  0.04103000  0.49170000  0.07352000  1.0
  P  P38  1  0.54103000  0.00830000  0.92648000  1.0
  P  P39  1  0.95897000  0.99170000  0.42648000  1.0
  H  H40  1  0.80100000  0.72220000  0.23320000  1.0
  H  H41  1  0.85860000  0.67000000  0.13390000  1.0
  H  H42  1  0.92750000  0.65360000  0.16390000  1.0
  H  H43  1  0.42840000  0.93210000  0.36770000  1.0
  H  H44  1  0.49700000  0.89430000  0.33740000  1.0
  H  H45  1  0.22920000  0.91150000  0.43230000  1.0
  H  H46  1  0.18160000  0.93700000  0.34900000  1.0
  H  H47  1  0.11880000  0.94460000  0.31200000  1.0
  H  H48  1  0.44050000  0.92640000  0.24070000  1.0
  H  H49  1  0.87240000  0.72130000  0.25870000  1.0
  H  H50  1  0.61200000  0.68140000  0.15330000  1.0
  H  H51  1  0.36980000  0.96240000  0.26840000  1.0
  H  H52  1  0.55080000  0.71780000  0.18940000  1.0
  H  H53  1  0.26130000  0.96690000  0.25930000  1.0
  H  H54  1  0.22540000  0.88420000  0.49440000  1.0
  H  H55  1  0.69140000  0.70250000  0.24360000  1.0
  H  H56  1  0.62760000  0.74030000  0.27780000  1.0
  H  H57  1  0.78530000  0.62930000  0.05950000  1.0
  H  H58  1  0.77360000  0.62350000  0.99760000  1.0
  H  H59  1  0.65600000  0.71370000  0.07180000  1.0
  H  H60  1  0.64960000  0.70950000  0.00940000  1.0
  H  H61  1  0.36470000  0.91370000  0.44070000  1.0
  H  H62  1  0.35630000  0.88590000  0.50370000  1.0
  H  H63  1  0.19760000  0.97310000  0.22410000  1.0
  H  H64  1  0.69900000  0.27780000  0.73320000  1.0
  H  H65  1  0.64140000  0.33000000  0.63390000  1.0
  H  H66  1  0.57250000  0.34640000  0.66390000  1.0
  H  H67  1  0.07160000  0.06790000  0.86770000  1.0
  H  H68  1  0.00300000  0.10570000  0.83740000  1.0
  H  H69  1  0.27080000  0.08850000  0.93230000  1.0
  H  H70  1  0.31840000  0.06300000  0.84900000  1.0
  H  H71  1  0.38120000  0.05540000  0.81200000  1.0
  H  H72  1  0.05950000  0.07360000  0.74070000  1.0
  H  H73  1  0.62760000  0.27870000  0.75870000  1.0
  H  H74  1  0.88800000  0.31860000  0.65330000  1.0
  H  H75  1  0.13020000  0.03760000  0.76840000  1.0
  H  H76  1  0.94920000  0.28220000  0.68940000  1.0
  H  H77  1  0.23870000  0.03310000  0.75930000  1.0
  H  H78  1  0.27460000  0.11580000  0.99440000  1.0
  H  H79  1  0.80860000  0.29750000  0.74360000  1.0
  H  H80  1  0.87240000  0.25970000  0.77780000  1.0
  H  H81  1  0.71470000  0.37070000  0.55950000  1.0
  H  H82  1  0.72640000  0.37650000  0.49760000  1.0
  H  H83  1  0.84400000  0.28630000  0.57180000  1.0
  H  H84  1  0.85040000  0.29050000  0.50940000  1.0
  H  H85  1  0.13530000  0.08630000  0.94070000  1.0
  H  H86  1  0.14370000  0.11410000  0.00370000  1.0
  H  H87  1  0.30240000  0.02690000  0.72410000  1.0
  H  H88  1  0.19900000  0.22220000  0.26680000  1.0
  H  H89  1  0.14140000  0.17000000  0.36610000  1.0
  H  H90  1  0.07250000  0.15360000  0.33610000  1.0
  H  H91  1  0.57160000  0.43210000  0.13230000  1.0
  H  H92  1  0.50300000  0.39430000  0.16260000  1.0
  H  H93  1  0.77080000  0.41150000  0.06770000  1.0
  H  H94  1  0.81840000  0.43700000  0.15100000  1.0
  H  H95  1  0.88120000  0.44460000  0.18800000  1.0
  H  H96  1  0.55950000  0.42640000  0.25930000  1.0
  H  H97  1  0.12760000  0.22130000  0.24130000  1.0
  H  H98  1  0.38800000  0.18140000  0.34670000  1.0
  H  H99  1  0.63020000  0.46240000  0.23160000  1.0
  H  H100  1  0.44920000  0.21780000  0.31060000  1.0
  H  H101  1  0.73870000  0.46690000  0.24070000  1.0
  H  H102  1  0.77460000  0.38420000  0.00560000  1.0
  H  H103  1  0.30860000  0.20250000  0.25640000  1.0
  H  H104  1  0.37240000  0.24030000  0.22220000  1.0
  H  H105  1  0.21470000  0.12930000  0.44050000  1.0
  H  H106  1  0.22640000  0.12350000  0.50240000  1.0
  H  H107  1  0.34400000  0.21370000  0.42820000  1.0
  H  H108  1  0.35040000  0.20950000  0.49060000  1.0
  H  H109  1  0.63530000  0.41370000  0.05930000  1.0
  H  H110  1  0.64370000  0.38590000  0.99630000  1.0
  H  H111  1  0.80240000  0.47310000  0.27590000  1.0
  H  H112  1  0.30100000  0.77780000  0.76680000  1.0
  H  H113  1  0.35860000  0.83000000  0.86610000  1.0
  H  H114  1  0.42750000  0.84640000  0.83610000  1.0
  H  H115  1  0.92840000  0.56790000  0.63230000  1.0
  H  H116  1  0.99700000  0.60570000  0.66260000  1.0
  H  H117  1  0.72920000  0.58850000  0.56770000  1.0
  H  H118  1  0.68160000  0.56300000  0.65100000  1.0
  H  H119  1  0.61880000  0.55540000  0.68800000  1.0
  H  H120  1  0.94050000  0.57360000  0.75930000  1.0
  H  H121  1  0.37240000  0.77870000  0.74130000  1.0
  H  H122  1  0.11200000  0.81860000  0.84670000  1.0
  H  H123  1  0.86980000  0.53760000  0.73160000  1.0
  H  H124  1  0.05080000  0.78220000  0.81060000  1.0
  H  H125  1  0.76130000  0.53310000  0.74070000  1.0
  H  H126  1  0.72540000  0.61580000  0.50560000  1.0
  H  H127  1  0.19140000  0.79750000  0.75640000  1.0
  H  H128  1  0.12760000  0.75970000  0.72220000  1.0
  H  H129  1  0.28530000  0.87070000  0.94050000  1.0
  H  H130  1  0.27360000  0.87650000  0.00240000  1.0
  H  H131  1  0.15600000  0.78630000  0.92820000  1.0
  H  H132  1  0.14960000  0.79050000  0.99060000  1.0
  H  H133  1  0.86470000  0.58630000  0.55930000  1.0
  H  H134  1  0.85630000  0.61410000  0.49630000  1.0
  H  H135  1  0.69760000  0.52690000  0.77590000  1.0
  H  H136  1  0.19900000  0.27780000  0.76680000  1.0
  H  H137  1  0.14140000  0.33000000  0.86610000  1.0
  H  H138  1  0.07250000  0.34640000  0.83610000  1.0
  H  H139  1  0.57160000  0.06790000  0.63230000  1.0
  H  H140  1  0.50300000  0.10570000  0.66260000  1.0
  H  H141  1  0.77080000  0.08850000  0.56770000  1.0
  H  H142  1  0.81840000  0.06300000  0.65100000  1.0
  H  H143  1  0.88120000  0.05540000  0.68800000  1.0
  H  H144  1  0.55950000  0.07360000  0.75930000  1.0
  H  H145  1  0.12760000  0.27870000  0.74130000  1.0
  H  H146  1  0.38800000  0.31860000  0.84670000  1.0
  H  H147  1  0.63020000  0.03760000  0.73160000  1.0
  H  H148  1  0.44920000  0.28220000  0.81060000  1.0
  H  H149  1  0.73870000  0.03310000  0.74070000  1.0
  H  H150  1  0.77460000  0.11580000  0.50560000  1.0
  H  H151  1  0.30860000  0.29750000  0.75640000  1.0
  H  H152  1  0.37240000  0.25970000  0.72220000  1.0
  H  H153  1  0.21470000  0.37070000  0.94050000  1.0
  H  H154  1  0.22640000  0.37650000  0.00240000  1.0
  H  H155  1  0.34400000  0.28630000  0.92820000  1.0
  H  H156  1  0.35040000  0.29050000  0.99060000  1.0
  H  H157  1  0.63530000  0.08630000  0.55930000  1.0
  H  H158  1  0.64370000  0.11410000  0.49630000  1.0
  H  H159  1  0.80240000  0.02690000  0.77590000  1.0
  H  H160  1  0.30100000  0.72220000  0.26680000  1.0
  H  H161  1  0.35860000  0.67000000  0.36610000  1.0
  H  H162  1  0.42750000  0.65360000  0.33610000  1.0
  H  H163  1  0.92840000  0.93210000  0.13230000  1.0
  H  H164  1  0.99700000  0.89430000  0.16260000  1.0
  H  H165  1  0.72920000  0.91150000  0.06770000  1.0
  H  H166  1  0.68160000  0.93700000  0.15100000  1.0
  H  H167  1  0.61880000  0.94460000  0.18800000  1.0
  H  H168  1  0.94050000  0.92640000  0.25930000  1.0
  H  H169  1  0.37240000  0.72130000  0.24130000  1.0
  H  H170  1  0.11200000  0.68140000  0.34670000  1.0
  H  H171  1  0.86980000  0.96240000  0.23160000  1.0
  H  H172  1  0.05080000  0.71780000  0.31060000  1.0
  H  H173  1  0.76130000  0.96690000  0.24070000  1.0
  H  H174  1  0.72540000  0.88420000  0.00560000  1.0
  H  H175  1  0.19140000  0.70250000  0.25640000  1.0
  H  H176  1  0.12760000  0.74030000  0.22220000  1.0
  H  H177  1  0.28530000  0.62930000  0.44050000  1.0
  H  H178  1  0.27360000  0.62350000  0.50240000  1.0
  H  H179  1  0.15600000  0.71370000  0.42820000  1.0
  H  H180  1  0.14960000  0.70950000  0.49060000  1.0
  H  H181  1  0.86470000  0.91370000  0.05930000  1.0
  H  H182  1  0.85630000  0.88590000  0.99630000  1.0
  H  H183  1  0.69760000  0.97310000  0.27590000  1.0
  H  H184  1  0.80100000  0.77780000  0.73320000  1.0
  H  H185  1  0.85860000  0.83000000  0.63390000  1.0
  H  H186  1  0.92750000  0.84640000  0.66390000  1.0
  H  H187  1  0.42840000  0.56790000  0.86770000  1.0
  H  H188  1  0.49700000  0.60570000  0.83740000  1.0
  H  H189  1  0.22920000  0.58850000  0.93230000  1.0
  H  H190  1  0.18160000  0.56300000  0.84900000  1.0
  H  H191  1  0.11880000  0.55540000  0.81200000  1.0
  H  H192  1  0.44050000  0.57360000  0.74070000  1.0
  H  H193  1  0.87240000  0.77870000  0.75870000  1.0
  H  H194  1  0.61200000  0.81860000  0.65330000  1.0
  H  H195  1  0.36980000  0.53760000  0.76840000  1.0
  H  H196  1  0.55080000  0.78220000  0.68940000  1.0
  H  H197  1  0.26130000  0.53310000  0.75930000  1.0
  H  H198  1  0.22540000  0.61580000  0.99440000  1.0
  H  H199  1  0.69140000  0.79750000  0.74360000  1.0
  H  H200  1  0.62760000  0.75970000  0.77780000  1.0
  H  H201  1  0.78530000  0.87070000  0.55950000  1.0
  H  H202  1  0.77360000  0.87650000  0.49760000  1.0
  H  H203  1  0.65600000  0.78630000  0.57180000  1.0
  H  H204  1  0.64960000  0.79050000  0.50940000  1.0
  H  H205  1  0.36470000  0.58630000  0.94070000  1.0
  H  H206  1  0.35630000  0.61410000  0.00370000  1.0
  H  H207  1  0.19760000  0.52690000  0.72410000  1.0
  H  H208  1  0.69900000  0.22220000  0.23320000  1.0
  H  H209  1  0.64140000  0.17000000  0.13390000  1.0
  H  H210  1  0.57250000  0.15360000  0.16390000  1.0
  H  H211  1  0.07160000  0.43210000  0.36770000  1.0
  H  H212  1  0.00300000  0.39430000  0.33740000  1.0
  H  H213  1  0.27080000  0.41150000  0.43230000  1.0
  H  H214  1  0.31840000  0.43700000  0.34900000  1.0
  H  H215  1  0.38120000  0.44460000  0.31200000  1.0
  H  H216  1  0.05950000  0.42640000  0.24070000  1.0
  H  H217  1  0.62760000  0.22130000  0.25870000  1.0
  H  H218  1  0.88800000  0.18140000  0.15330000  1.0
  H  H219  1  0.13020000  0.46240000  0.26840000  1.0
  H  H220  1  0.94920000  0.21780000  0.18940000  1.0
  H  H221  1  0.23870000  0.46690000  0.25930000  1.0
  H  H222  1  0.27460000  0.38420000  0.49440000  1.0
  H  H223  1  0.80860000  0.20250000  0.24360000  1.0
  H  H224  1  0.87240000  0.24030000  0.27780000  1.0
  H  H225  1  0.71470000  0.12930000  0.05950000  1.0
  H  H226  1  0.72640000  0.12350000  0.99760000  1.0
  H  H227  1  0.84400000  0.21370000  0.07180000  1.0
  H  H228  1  0.85040000  0.20950000  0.00940000  1.0
  H  H229  1  0.13530000  0.41370000  0.44070000  1.0
  H  H230  1  0.14370000  0.38590000  0.50370000  1.0
  H  H231  1  0.30240000  0.47310000  0.22410000  1.0
  W  W232  1  0.54314000  0.67341000  0.35050000  1.0
  W  W233  1  0.46942000  0.70293000  0.42397000  1.0
  W  W234  1  0.42176000  0.45086000  0.41028000  1.0
  W  W235  1  0.49412000  0.25233000  0.40879000  1.0
  W  W236  1  0.61918000  0.45187000  0.34814000  1.0
  W  W237  1  0.66096000  0.52040000  0.43505000  1.0
  W  W238  1  0.58437000  0.73592000  0.43735000  1.0
  W  W239  1  0.61776000  0.28777000  0.42360000  1.0
  W  W240  1  0.49456000  0.42202000  0.33584000  1.0
  W  W241  1  0.95686000  0.32659000  0.85050000  1.0
  W  W242  1  0.03058000  0.29707000  0.92397000  1.0
  W  W243  1  0.07824000  0.54914000  0.91028000  1.0
  W  W244  1  0.00588000  0.74767000  0.90879000  1.0
  W  W245  1  0.88082000  0.54813000  0.84814000  1.0
  W  W246  1  0.83904000  0.47960000  0.93505000  1.0
  W  W247  1  0.91563000  0.26408000  0.93735000  1.0
  W  W248  1  0.88224000  0.71223000  0.92360000  1.0
  W  W249  1  0.00544000  0.57798000  0.83584000  1.0
  W  W250  1  0.45686000  0.17341000  0.14950000  1.0
  W  W251  1  0.53058000  0.20293000  0.07603000  1.0
  W  W252  1  0.57824000  0.95086000  0.08972000  1.0
  W  W253  1  0.50588000  0.75233000  0.09121000  1.0
  W  W254  1  0.38082000  0.95187000  0.15186000  1.0
  W  W255  1  0.33904000  0.02040000  0.06495000  1.0
  W  W256  1  0.41563000  0.23592000  0.06265000  1.0
  W  W257  1  0.38224000  0.78777000  0.07640000  1.0
  W  W258  1  0.50544000  0.92202000  0.16416000  1.0
  W  W259  1  0.04314000  0.82659000  0.64950000  1.0
  W  W260  1  0.96942000  0.79707000  0.57603000  1.0
  W  W261  1  0.92176000  0.04914000  0.58972000  1.0
  W  W262  1  0.99412000  0.24767000  0.59121000  1.0
  W  W263  1  0.11918000  0.04813000  0.65186000  1.0
  W  W264  1  0.16096000  0.97960000  0.56495000  1.0
  W  W265  1  0.08437000  0.76408000  0.56265000  1.0
  W  W266  1  0.11776000  0.21223000  0.57640000  1.0
  W  W267  1  0.99456000  0.07798000  0.66416000  1.0
  W  W268  1  0.45686000  0.32659000  0.64950000  1.0
  W  W269  1  0.53058000  0.29707000  0.57603000  1.0
  W  W270  1  0.57824000  0.54914000  0.58972000  1.0
  W  W271  1  0.50588000  0.74767000  0.59121000  1.0
  W  W272  1  0.38082000  0.54813000  0.65186000  1.0
  W  W273  1  0.33904000  0.47960000  0.56495000  1.0
  W  W274  1  0.41563000  0.26408000  0.56265000  1.0
  W  W275  1  0.38224000  0.71223000  0.57640000  1.0
  W  W276  1  0.50544000  0.57798000  0.66416000  1.0
  W  W277  1  0.04314000  0.67341000  0.14950000  1.0
  W  W278  1  0.96942000  0.70293000  0.07603000  1.0
  W  W279  1  0.92176000  0.45086000  0.08972000  1.0
  W  W280  1  0.99412000  0.25233000  0.09121000  1.0
  W  W281  1  0.11918000  0.45187000  0.15186000  1.0
  W  W282  1  0.16096000  0.52040000  0.06495000  1.0
  W  W283  1  0.08437000  0.73592000  0.06265000  1.0
  W  W284  1  0.11776000  0.28777000  0.07640000  1.0
  W  W285  1  0.99456000  0.42202000  0.16416000  1.0
  W  W286  1  0.54314000  0.82659000  0.85050000  1.0
  W  W287  1  0.46942000  0.79707000  0.92397000  1.0
  W  W288  1  0.42176000  0.04914000  0.91028000  1.0
  W  W289  1  0.49412000  0.24767000  0.90879000  1.0
  W  W290  1  0.61918000  0.04813000  0.84814000  1.0
  W  W291  1  0.66096000  0.97960000  0.93505000  1.0
  W  W292  1  0.58437000  0.76408000  0.93735000  1.0
  W  W293  1  0.61776000  0.21223000  0.92360000  1.0
  W  W294  1  0.49456000  0.07798000  0.83584000  1.0
  W  W295  1  0.95686000  0.17341000  0.35050000  1.0
  W  W296  1  0.03058000  0.20293000  0.42397000  1.0
  W  W297  1  0.07824000  0.95086000  0.41028000  1.0
  W  W298  1  0.00588000  0.75233000  0.40879000  1.0
  W  W299  1  0.88082000  0.95187000  0.34814000  1.0
  W  W300  1  0.83904000  0.02040000  0.43505000  1.0
  W  W301  1  0.91563000  0.23592000  0.43735000  1.0
  W  W302  1  0.88224000  0.78777000  0.42360000  1.0
  W  W303  1  0.00544000  0.92202000  0.33584000  1.0
  C  C304  1  0.70070000  0.68910000  0.17110000  1.0
  C  C305  1  0.72980000  0.67990000  0.11390000  1.0
  C  C306  1  0.77580000  0.68880000  0.16310000  1.0
  C  C307  1  0.72250000  0.67530000  0.07280000  1.0
  C  C308  1  0.82250000  0.69390000  0.18110000  1.0
  C  C309  1  0.82650000  0.71030000  0.21850000  1.0
  C  C310  1  0.86070000  0.67710000  0.15950000  1.0
  C  C311  1  0.90200000  0.67120000  0.17780000  1.0
  C  C312  1  0.30260000  0.92740000  0.38840000  1.0
  C  C313  1  0.27040000  0.94490000  0.33250000  1.0
  C  C314  1  0.34580000  0.94200000  0.33850000  1.0
  C  C315  1  0.39250000  0.94090000  0.32030000  1.0
  C  C316  1  0.42990000  0.92760000  0.34200000  1.0
  C  C317  1  0.47110000  0.90630000  0.32320000  1.0
  C  C318  1  0.29770000  0.91330000  0.42930000  1.0
  C  C319  1  0.25580000  0.90660000  0.44620000  1.0
  C  C320  1  0.22870000  0.95120000  0.30820000  1.0
  C  C321  1  0.18510000  0.94430000  0.32350000  1.0
  C  C322  1  0.14760000  0.94810000  0.30130000  1.0
  C  C323  1  0.43820000  0.92470000  0.26640000  1.0
  C  C324  1  0.86930000  0.70850000  0.23340000  1.0
  C  C325  1  0.65930000  0.69650000  0.19450000  1.0
  C  C326  1  0.61580000  0.69620000  0.17840000  1.0
  C  C327  1  0.39510000  0.94590000  0.28280000  1.0
  C  C328  1  0.57960000  0.71780000  0.20010000  1.0
  C  C329  1  0.23280000  0.96190000  0.27040000  1.0
  C  C330  1  0.25400000  0.89240000  0.48370000  1.0
  C  C331  1  0.66320000  0.70890000  0.23200000  1.0
  C  C332  1  0.62480000  0.73090000  0.25230000  1.0
  C  C333  1  0.75700000  0.64640000  0.04980000  1.0
  C  C334  1  0.74960000  0.64300000  0.01280000  1.0
  C  C335  1  0.68090000  0.69670000  0.05720000  1.0
  C  C336  1  0.67750000  0.69230000  0.01990000  1.0
  C  C337  1  0.33580000  0.90790000  0.45110000  1.0
  C  C338  1  0.33020000  0.89340000  0.48930000  1.0
  C  C339  1  0.19440000  0.96500000  0.24960000  1.0
  C  C340  1  0.79930000  0.31090000  0.67110000  1.0
  C  C341  1  0.77020000  0.32010000  0.61390000  1.0
  C  C342  1  0.72420000  0.31120000  0.66310000  1.0
  C  C343  1  0.77750000  0.32470000  0.57280000  1.0
  C  C344  1  0.67750000  0.30610000  0.68110000  1.0
  C  C345  1  0.67350000  0.28970000  0.71850000  1.0
  C  C346  1  0.63930000  0.32290000  0.65950000  1.0
  C  C347  1  0.59800000  0.32880000  0.67780000  1.0
  C  C348  1  0.19740000  0.07260000  0.88840000  1.0
  C  C349  1  0.22960000  0.05510000  0.83250000  1.0
  C  C350  1  0.15420000  0.05800000  0.83850000  1.0
  C  C351  1  0.10750000  0.05910000  0.82030000  1.0
  C  C352  1  0.07010000  0.07240000  0.84200000  1.0
  C  C353  1  0.02890000  0.09370000  0.82320000  1.0
  C  C354  1  0.20230000  0.08670000  0.92930000  1.0
  C  C355  1  0.24420000  0.09340000  0.94620000  1.0
  C  C356  1  0.27130000  0.04880000  0.80820000  1.0
  C  C357  1  0.31490000  0.05570000  0.82350000  1.0
  C  C358  1  0.35240000  0.05190000  0.80130000  1.0
  C  C359  1  0.06180000  0.07530000  0.76640000  1.0
  C  C360  1  0.63070000  0.29150000  0.73340000  1.0
  C  C361  1  0.84070000  0.30350000  0.69450000  1.0
  C  C362  1  0.88420000  0.30380000  0.67840000  1.0
  C  C363  1  0.10490000  0.05410000  0.78280000  1.0
  C  C364  1  0.92040000  0.28220000  0.70010000  1.0
  C  C365  1  0.26720000  0.03810000  0.77040000  1.0
  C  C366  1  0.24600000  0.10760000  0.98370000  1.0
  C  C367  1  0.83680000  0.29110000  0.73200000  1.0
  C  C368  1  0.87520000  0.26910000  0.75230000  1.0
  C  C369  1  0.74300000  0.35360000  0.54980000  1.0
  C  C370  1  0.75040000  0.35700000  0.51280000  1.0
  C  C371  1  0.81910000  0.30330000  0.55720000  1.0
  C  C372  1  0.82250000  0.30770000  0.51990000  1.0
  C  C373  1  0.16420000  0.09210000  0.95110000  1.0
  C  C374  1  0.16980000  0.10660000  0.98930000  1.0
  C  C375  1  0.30560000  0.03500000  0.74960000  1.0
  C  C376  1  0.29930000  0.18910000  0.32890000  1.0
  C  C377  1  0.27020000  0.17990000  0.38610000  1.0
  C  C378  1  0.22420000  0.18880000  0.33690000  1.0
  C  C379  1  0.27750000  0.17530000  0.42720000  1.0
  C  C380  1  0.17750000  0.19390000  0.31890000  1.0
  C  C381  1  0.17350000  0.21030000  0.28150000  1.0
  C  C382  1  0.13930000  0.17710000  0.34050000  1.0
  C  C383  1  0.09800000  0.17120000  0.32220000  1.0
  C  C384  1  0.69740000  0.42740000  0.11160000  1.0
  C  C385  1  0.72960000  0.44490000  0.16750000  1.0
  C  C386  1  0.65420000  0.44200000  0.16150000  1.0
  C  C387  1  0.60750000  0.44090000  0.17970000  1.0
  C  C388  1  0.57010000  0.42760000  0.15800000  1.0
  C  C389  1  0.52890000  0.40630000  0.17680000  1.0
  C  C390  1  0.70230000  0.41330000  0.07070000  1.0
  C  C391  1  0.74420000  0.40660000  0.05380000  1.0
  C  C392  1  0.77130000  0.45120000  0.19180000  1.0
  C  C393  1  0.81490000  0.44430000  0.17650000  1.0
  C  C394  1  0.85240000  0.44810000  0.19870000  1.0
  C  C395  1  0.56180000  0.42470000  0.23360000  1.0
  C  C396  1  0.13070000  0.20850000  0.26660000  1.0
  C  C397  1  0.34070000  0.19650000  0.30550000  1.0
  C  C398  1  0.38420000  0.19620000  0.32160000  1.0
  C  C399  1  0.60490000  0.44590000  0.21720000  1.0
  C  C400  1  0.42040000  0.21780000  0.29990000  1.0
  C  C401  1  0.76720000  0.46190000  0.22960000  1.0
  C  C402  1  0.74600000  0.39240000  0.01630000  1.0
  C  C403  1  0.33680000  0.20890000  0.26800000  1.0
  C  C404  1  0.37520000  0.23090000  0.24770000  1.0
  C  C405  1  0.24300000  0.14640000  0.45020000  1.0
  C  C406  1  0.25040000  0.14300000  0.48720000  1.0
  C  C407  1  0.31910000  0.19670000  0.44280000  1.0
  C  C408  1  0.32250000  0.19230000  0.48010000  1.0
  C  C409  1  0.66420000  0.40790000  0.04890000  1.0
  C  C410  1  0.66980000  0.39340000  0.01070000  1.0
  C  C411  1  0.80560000  0.46500000  0.25040000  1.0
  C  C412  1  0.20070000  0.81090000  0.82890000  1.0
  C  C413  1  0.22980000  0.82010000  0.88610000  1.0
  C  C414  1  0.27580000  0.81120000  0.83690000  1.0
  C  C415  1  0.22250000  0.82470000  0.92720000  1.0
  C  C416  1  0.32250000  0.80610000  0.81890000  1.0
  C  C417  1  0.32650000  0.78970000  0.78150000  1.0
  C  C418  1  0.36070000  0.82290000  0.84050000  1.0
  C  C419  1  0.40200000  0.82880000  0.82220000  1.0
  C  C420  1  0.80260000  0.57260000  0.61160000  1.0
  C  C421  1  0.77040000  0.55510000  0.66750000  1.0
  C  C422  1  0.84580000  0.55800000  0.66150000  1.0
  C  C423  1  0.89250000  0.55910000  0.67970000  1.0
  C  C424  1  0.92990000  0.57240000  0.65800000  1.0
  C  C425  1  0.97110000  0.59370000  0.67680000  1.0
  C  C426  1  0.79770000  0.58670000  0.57070000  1.0
  C  C427  1  0.75580000  0.59340000  0.55380000  1.0
  C  C428  1  0.72870000  0.54880000  0.69180000  1.0
  C  C429  1  0.68510000  0.55570000  0.67650000  1.0
  C  C430  1  0.64760000  0.55190000  0.69870000  1.0
  C  C431  1  0.93820000  0.57530000  0.73360000  1.0
  C  C432  1  0.36930000  0.79150000  0.76660000  1.0
  C  C433  1  0.15930000  0.80350000  0.80550000  1.0
  C  C434  1  0.11580000  0.80380000  0.82160000  1.0
  C  C435  1  0.89510000  0.55410000  0.71720000  1.0
  C  C436  1  0.07960000  0.78220000  0.79990000  1.0
  C  C437  1  0.73280000  0.53810000  0.72960000  1.0
  C  C438  1  0.75400000  0.60760000  0.51630000  1.0
  C  C439  1  0.16320000  0.79110000  0.76800000  1.0
  C  C440  1  0.12480000  0.76910000  0.74770000  1.0
  C  C441  1  0.25700000  0.85360000  0.95020000  1.0
  C  C442  1  0.24960000  0.85700000  0.98720000  1.0
  C  C443  1  0.18090000  0.80330000  0.94280000  1.0
  C  C444  1  0.17750000  0.80770000  0.98010000  1.0
  C  C445  1  0.83580000  0.59210000  0.54890000  1.0
  C  C446  1  0.83020000  0.60660000  0.51070000  1.0
  C  C447  1  0.69440000  0.53500000  0.75040000  1.0
  C  C448  1  0.29930000  0.31090000  0.82890000  1.0
  C  C449  1  0.27020000  0.32010000  0.88610000  1.0
  C  C450  1  0.22420000  0.31120000  0.83690000  1.0
  C  C451  1  0.27750000  0.32470000  0.92720000  1.0
  C  C452  1  0.17750000  0.30610000  0.81890000  1.0
  C  C453  1  0.17350000  0.28970000  0.78150000  1.0
  C  C454  1  0.13930000  0.32290000  0.84050000  1.0
  C  C455  1  0.09800000  0.32880000  0.82220000  1.0
  C  C456  1  0.69740000  0.07260000  0.61160000  1.0
  C  C457  1  0.72960000  0.05510000  0.66750000  1.0
  C  C458  1  0.65420000  0.05800000  0.66150000  1.0
  C  C459  1  0.60750000  0.05910000  0.67970000  1.0
  C  C460  1  0.57010000  0.07240000  0.65800000  1.0
  C  C461  1  0.52890000  0.09370000  0.67680000  1.0
  C  C462  1  0.70230000  0.08670000  0.57070000  1.0
  C  C463  1  0.74420000  0.09340000  0.55380000  1.0
  C  C464  1  0.77130000  0.04880000  0.69180000  1.0
  C  C465  1  0.81490000  0.05570000  0.67650000  1.0
  C  C466  1  0.85240000  0.05190000  0.69870000  1.0
  C  C467  1  0.56180000  0.07530000  0.73360000  1.0
  C  C468  1  0.13070000  0.29150000  0.76660000  1.0
  C  C469  1  0.34070000  0.30350000  0.80550000  1.0
  C  C470  1  0.38420000  0.30380000  0.82160000  1.0
  C  C471  1  0.60490000  0.05410000  0.71720000  1.0
  C  C472  1  0.42040000  0.28220000  0.79990000  1.0
  C  C473  1  0.76720000  0.03810000  0.72960000  1.0
  C  C474  1  0.74600000  0.10760000  0.51630000  1.0
  C  C475  1  0.33680000  0.29110000  0.76800000  1.0
  C  C476  1  0.37520000  0.26910000  0.74770000  1.0
  C  C477  1  0.24300000  0.35360000  0.95020000  1.0
  C  C478  1  0.25040000  0.35700000  0.98720000  1.0
  C  C479  1  0.31910000  0.30330000  0.94280000  1.0
  C  C480  1  0.32250000  0.30770000  0.98010000  1.0
  C  C481  1  0.66420000  0.09210000  0.54890000  1.0
  C  C482  1  0.66980000  0.10660000  0.51070000  1.0
  C  C483  1  0.80560000  0.03500000  0.75040000  1.0
  C  C484  1  0.20070000  0.68910000  0.32890000  1.0
  C  C485  1  0.22980000  0.67990000  0.38610000  1.0
  C  C486  1  0.27580000  0.68880000  0.33690000  1.0
  C  C487  1  0.22250000  0.67530000  0.42720000  1.0
  C  C488  1  0.32250000  0.69390000  0.31890000  1.0
  C  C489  1  0.32650000  0.71030000  0.28150000  1.0
  C  C490  1  0.36070000  0.67710000  0.34050000  1.0
  C  C491  1  0.40200000  0.67120000  0.32220000  1.0
  C  C492  1  0.80260000  0.92740000  0.11160000  1.0
  C  C493  1  0.77040000  0.94490000  0.16750000  1.0
  C  C494  1  0.84580000  0.94200000  0.16150000  1.0
  C  C495  1  0.89250000  0.94090000  0.17970000  1.0
  C  C496  1  0.92990000  0.92760000  0.15800000  1.0
  C  C497  1  0.97110000  0.90630000  0.17680000  1.0
  C  C498  1  0.79770000  0.91330000  0.07070000  1.0
  C  C499  1  0.75580000  0.90660000  0.05380000  1.0
  C  C500  1  0.72870000  0.95120000  0.19180000  1.0
  C  C501  1  0.68510000  0.94430000  0.17650000  1.0
  C  C502  1  0.64760000  0.94810000  0.19870000  1.0
  C  C503  1  0.93820000  0.92470000  0.23360000  1.0
  C  C504  1  0.36930000  0.70850000  0.26660000  1.0
  C  C505  1  0.15930000  0.69650000  0.30550000  1.0
  C  C506  1  0.11580000  0.69620000  0.32160000  1.0
  C  C507  1  0.89510000  0.94590000  0.21720000  1.0
  C  C508  1  0.07960000  0.71780000  0.29990000  1.0
  C  C509  1  0.73280000  0.96190000  0.22960000  1.0
  C  C510  1  0.75400000  0.89240000  0.01630000  1.0
  C  C511  1  0.16320000  0.70890000  0.26800000  1.0
  C  C512  1  0.12480000  0.73090000  0.24770000  1.0
  C  C513  1  0.25700000  0.64640000  0.45020000  1.0
  C  C514  1  0.24960000  0.64300000  0.48720000  1.0
  C  C515  1  0.18090000  0.69670000  0.44280000  1.0
  C  C516  1  0.17750000  0.69230000  0.48010000  1.0
  C  C517  1  0.83580000  0.90790000  0.04890000  1.0
  C  C518  1  0.83020000  0.89340000  0.01070000  1.0
  C  C519  1  0.69440000  0.96500000  0.25040000  1.0
  C  C520  1  0.70070000  0.81090000  0.67110000  1.0
  C  C521  1  0.72980000  0.82010000  0.61390000  1.0
  C  C522  1  0.77580000  0.81120000  0.66310000  1.0
  C  C523  1  0.72250000  0.82470000  0.57280000  1.0
  C  C524  1  0.82250000  0.80610000  0.68110000  1.0
  C  C525  1  0.82650000  0.78970000  0.71850000  1.0
  C  C526  1  0.86070000  0.82290000  0.65950000  1.0
  C  C527  1  0.90200000  0.82880000  0.67780000  1.0
  C  C528  1  0.30260000  0.57260000  0.88840000  1.0
  C  C529  1  0.27040000  0.55510000  0.83250000  1.0
  C  C530  1  0.34580000  0.55800000  0.83850000  1.0
  C  C531  1  0.39250000  0.55910000  0.82030000  1.0
  C  C532  1  0.42990000  0.57240000  0.84200000  1.0
  C  C533  1  0.47110000  0.59370000  0.82320000  1.0
  C  C534  1  0.29770000  0.58670000  0.92930000  1.0
  C  C535  1  0.25580000  0.59340000  0.94620000  1.0
  C  C536  1  0.22870000  0.54880000  0.80820000  1.0
  C  C537  1  0.18510000  0.55570000  0.82350000  1.0
  C  C538  1  0.14760000  0.55190000  0.80130000  1.0
  C  C539  1  0.43820000  0.57530000  0.76640000  1.0
  C  C540  1  0.86930000  0.79150000  0.73340000  1.0
  C  C541  1  0.65930000  0.80350000  0.69450000  1.0
  C  C542  1  0.61580000  0.80380000  0.67840000  1.0
  C  C543  1  0.39510000  0.55410000  0.78280000  1.0
  C  C544  1  0.57960000  0.78220000  0.70010000  1.0
  C  C545  1  0.23280000  0.53810000  0.77040000  1.0
  C  C546  1  0.25400000  0.60760000  0.98370000  1.0
  C  C547  1  0.66320000  0.79110000  0.73200000  1.0
  C  C548  1  0.62480000  0.76910000  0.75230000  1.0
  C  C549  1  0.75700000  0.85360000  0.54980000  1.0
  C  C550  1  0.74960000  0.85700000  0.51280000  1.0
  C  C551  1  0.68090000  0.80330000  0.55720000  1.0
  C  C552  1  0.67750000  0.80770000  0.51990000  1.0
  C  C553  1  0.33580000  0.59210000  0.95110000  1.0
  C  C554  1  0.33020000  0.60660000  0.98930000  1.0
  C  C555  1  0.19440000  0.53500000  0.74960000  1.0
  C  C556  1  0.79930000  0.18910000  0.17110000  1.0
  C  C557  1  0.77020000  0.17990000  0.11390000  1.0
  C  C558  1  0.72420000  0.18880000  0.16310000  1.0
  C  C559  1  0.77750000  0.17530000  0.07280000  1.0
  C  C560  1  0.67750000  0.19390000  0.18110000  1.0
  C  C561  1  0.67350000  0.21030000  0.21850000  1.0
  C  C562  1  0.63930000  0.17710000  0.15950000  1.0
  C  C563  1  0.59800000  0.17120000  0.17780000  1.0
  C  C564  1  0.19740000  0.42740000  0.38840000  1.0
  C  C565  1  0.22960000  0.44490000  0.33250000  1.0
  C  C566  1  0.15420000  0.44200000  0.33850000  1.0
  C  C567  1  0.10750000  0.44090000  0.32030000  1.0
  C  C568  1  0.07010000  0.42760000  0.34200000  1.0
  C  C569  1  0.02890000  0.40630000  0.32320000  1.0
  C  C570  1  0.20230000  0.41330000  0.42930000  1.0
  C  C571  1  0.24420000  0.40660000  0.44620000  1.0
  C  C572  1  0.27130000  0.45120000  0.30820000  1.0
  C  C573  1  0.31490000  0.44430000  0.32350000  1.0
  C  C574  1  0.35240000  0.44810000  0.30130000  1.0
  C  C575  1  0.06180000  0.42470000  0.26640000  1.0
  C  C576  1  0.63070000  0.20850000  0.23340000  1.0
  C  C577  1  0.84070000  0.19650000  0.19450000  1.0
  C  C578  1  0.88420000  0.19620000  0.17840000  1.0
  C  C579  1  0.10490000  0.44590000  0.28280000  1.0
  C  C580  1  0.92040000  0.21780000  0.20010000  1.0
  C  C581  1  0.26720000  0.46190000  0.27040000  1.0
  C  C582  1  0.24600000  0.39240000  0.48370000  1.0
  C  C583  1  0.83680000  0.20890000  0.23200000  1.0
  C  C584  1  0.87520000  0.23090000  0.25230000  1.0
  C  C585  1  0.74300000  0.14640000  0.04980000  1.0
  C  C586  1  0.75040000  0.14300000  0.01280000  1.0
  C  C587  1  0.81910000  0.19670000  0.05720000  1.0
  C  C588  1  0.82250000  0.19230000  0.01990000  1.0
  C  C589  1  0.16420000  0.40790000  0.45110000  1.0
  C  C590  1  0.16980000  0.39340000  0.48930000  1.0
  C  C591  1  0.30560000  0.46500000  0.24960000  1.0
  N  N592  1  0.47520000  0.90260000  0.28600000  1.0
  N  N593  1  0.29060000  0.88960000  0.50610000  1.0
  N  N594  1  0.26400000  0.93340000  0.36850000  1.0
  N  N595  1  0.34410000  0.93350000  0.37510000  1.0
  N  N596  1  0.31000000  0.95170000  0.31580000  1.0
  N  N597  1  0.69330000  0.68150000  0.13470000  1.0
  N  N598  1  0.74110000  0.69410000  0.18650000  1.0
  N  N599  1  0.77260000  0.68500000  0.12650000  1.0
  N  N600  1  0.90780000  0.68910000  0.21350000  1.0
  N  N601  1  0.15150000  0.95710000  0.26350000  1.0
  N  N602  1  0.58290000  0.73930000  0.23630000  1.0
  N  N603  1  0.71070000  0.66540000  0.99700000  1.0
  N  N604  1  0.02480000  0.09740000  0.78600000  1.0
  N  N605  1  0.20940000  0.11040000  0.00610000  1.0
  N  N606  1  0.23600000  0.06660000  0.86850000  1.0
  N  N607  1  0.15590000  0.06650000  0.87510000  1.0
  N  N608  1  0.19000000  0.04830000  0.81580000  1.0
  N  N609  1  0.80670000  0.31850000  0.63470000  1.0
  N  N610  1  0.75890000  0.30590000  0.68650000  1.0
  N  N611  1  0.72740000  0.31500000  0.62650000  1.0
  N  N612  1  0.59220000  0.31090000  0.71350000  1.0
  N  N613  1  0.34850000  0.04290000  0.76350000  1.0
  N  N614  1  0.91710000  0.26070000  0.73630000  1.0
  N  N615  1  0.78930000  0.33460000  0.49700000  1.0
  N  N616  1  0.52480000  0.40260000  0.21400000  1.0
  N  N617  1  0.70940000  0.38960000  0.99390000  1.0
  N  N618  1  0.73600000  0.43340000  0.13150000  1.0
  N  N619  1  0.65590000  0.43350000  0.12490000  1.0
  N  N620  1  0.69000000  0.45170000  0.18420000  1.0
  N  N621  1  0.30670000  0.18150000  0.36530000  1.0
  N  N622  1  0.25890000  0.19410000  0.31350000  1.0
  N  N623  1  0.22740000  0.18500000  0.37350000  1.0
  N  N624  1  0.09220000  0.18910000  0.28650000  1.0
  N  N625  1  0.84850000  0.45710000  0.23650000  1.0
  N  N626  1  0.41710000  0.23930000  0.26370000  1.0
  N  N627  1  0.28930000  0.16540000  0.50300000  1.0
  N  N628  1  0.97520000  0.59740000  0.71400000  1.0
  N  N629  1  0.79060000  0.61040000  0.49390000  1.0
  N  N630  1  0.76400000  0.56660000  0.63150000  1.0
  N  N631  1  0.84410000  0.56650000  0.62490000  1.0
  N  N632  1  0.81000000  0.54830000  0.68420000  1.0
  N  N633  1  0.19330000  0.81850000  0.86530000  1.0
  N  N634  1  0.24110000  0.80590000  0.81350000  1.0
  N  N635  1  0.27260000  0.81500000  0.87350000  1.0
  N  N636  1  0.40780000  0.81090000  0.78650000  1.0
  N  N637  1  0.65150000  0.54290000  0.73650000  1.0
  N  N638  1  0.08290000  0.76070000  0.76370000  1.0
  N  N639  1  0.21070000  0.83460000  0.00300000  1.0
  N  N640  1  0.52480000  0.09740000  0.71400000  1.0
  N  N641  1  0.70940000  0.11040000  0.49390000  1.0
  N  N642  1  0.73600000  0.06660000  0.63150000  1.0
  N  N643  1  0.65590000  0.06650000  0.62490000  1.0
  N  N644  1  0.69000000  0.04830000  0.68420000  1.0
  N  N645  1  0.30670000  0.31850000  0.86530000  1.0
  N  N646  1  0.25890000  0.30590000  0.81350000  1.0
  N  N647  1  0.22740000  0.31500000  0.87350000  1.0
  N  N648  1  0.09220000  0.31090000  0.78650000  1.0
  N  N649  1  0.84850000  0.04290000  0.73650000  1.0
  N  N650  1  0.41710000  0.26070000  0.76370000  1.0
  N  N651  1  0.28930000  0.33460000  0.00300000  1.0
  N  N652  1  0.97520000  0.90260000  0.21400000  1.0
  N  N653  1  0.79060000  0.88960000  0.99390000  1.0
  N  N654  1  0.76400000  0.93340000  0.13150000  1.0
  N  N655  1  0.84410000  0.93350000  0.12490000  1.0
  N  N656  1  0.81000000  0.95170000  0.18420000  1.0
  N  N657  1  0.19330000  0.68150000  0.36530000  1.0
  N  N658  1  0.24110000  0.69410000  0.31350000  1.0
  N  N659  1  0.27260000  0.68500000  0.37350000  1.0
  N  N660  1  0.40780000  0.68910000  0.28650000  1.0
  N  N661  1  0.65150000  0.95710000  0.23650000  1.0
  N  N662  1  0.08290000  0.73930000  0.26370000  1.0
  N  N663  1  0.21070000  0.66540000  0.50300000  1.0
  N  N664  1  0.47520000  0.59740000  0.78600000  1.0
  N  N665  1  0.29060000  0.61040000  0.00610000  1.0
  N  N666  1  0.26400000  0.56660000  0.86850000  1.0
  N  N667  1  0.34410000  0.56650000  0.87510000  1.0
  N  N668  1  0.31000000  0.54830000  0.81580000  1.0
  N  N669  1  0.69330000  0.81850000  0.63470000  1.0
  N  N670  1  0.74110000  0.80590000  0.68650000  1.0
  N  N671  1  0.77260000  0.81500000  0.62650000  1.0
  N  N672  1  0.90780000  0.81090000  0.71350000  1.0
  N  N673  1  0.15150000  0.54290000  0.76350000  1.0
  N  N674  1  0.58290000  0.76070000  0.73630000  1.0
  N  N675  1  0.71070000  0.83460000  0.49700000  1.0
  N  N676  1  0.02480000  0.40260000  0.28600000  1.0
  N  N677  1  0.20940000  0.38960000  0.50610000  1.0
  N  N678  1  0.23600000  0.43340000  0.36850000  1.0
  N  N679  1  0.15590000  0.43350000  0.37510000  1.0
  N  N680  1  0.19000000  0.45170000  0.31580000  1.0
  N  N681  1  0.80670000  0.18150000  0.13470000  1.0
  N  N682  1  0.75890000  0.19410000  0.18650000  1.0
  N  N683  1  0.72740000  0.18500000  0.12650000  1.0
  N  N684  1  0.59220000  0.18910000  0.21350000  1.0
  N  N685  1  0.34850000  0.45710000  0.26350000  1.0
  N  N686  1  0.91710000  0.23930000  0.23630000  1.0
  N  N687  1  0.78930000  0.16540000  0.99700000  1.0
  O  O688  1  0.50540000  0.43080000  0.40530000  1.0
  O  O689  1  0.58900000  0.45480000  0.41480000  1.0
  O  O690  1  0.53390000  0.48010000  0.46860000  1.0
  O  O691  1  0.53660000  0.60210000  0.41440000  1.0
  O  O692  1  0.49450000  0.27110000  0.45830000  1.0
  O  O693  1  0.43280000  0.31420000  0.40850000  1.0
  O  O694  1  0.49300000  0.29200000  0.35590000  1.0
  O  O695  1  0.55940000  0.24660000  0.40590000  1.0
  O  O696  1  0.43820000  0.59090000  0.40570000  1.0
  O  O697  1  0.59810000  0.30610000  0.46980000  1.0
  O  O698  1  0.64880000  0.17610000  0.42550000  1.0
  O  O699  1  0.62870000  0.32640000  0.36980000  1.0
  O  O700  1  0.56600000  0.53960000  0.53990000  1.0
  O  O701  1  0.57190000  0.68560000  0.48140000  1.0
  O  O702  1  0.63680000  0.50670000  0.47950000  1.0
  O  O703  1  0.52120000  0.78400000  0.43560000  1.0
  O  O704  1  0.57930000  0.75020000  0.38190000  1.0
  O  O705  1  0.63280000  0.64770000  0.42650000  1.0
  O  O706  1  0.46990000  0.65010000  0.47080000  1.0
  O  O707  1  0.49030000  0.72440000  0.37300000  1.0
  O  O708  1  0.59290000  0.58370000  0.34500000  1.0
  O  O709  1  0.55950000  0.40760000  0.33510000  1.0
  O  O710  1  0.66360000  0.50850000  0.37920000  1.0
  O  O711  1  0.54420000  0.74500000  0.31050000  1.0
  O  O712  1  0.48070000  0.39890000  0.28980000  1.0
  O  O713  1  0.43720000  0.44820000  0.35750000  1.0
  O  O714  1  0.66830000  0.37610000  0.43130000  1.0
  O  O715  1  0.50410000  0.55900000  0.33710000  1.0
  O  O716  1  0.71770000  0.55490000  0.44210000  1.0
  O  O717  1  0.99460000  0.56920000  0.90530000  1.0
  O  O718  1  0.91100000  0.54520000  0.91480000  1.0
  O  O719  1  0.96610000  0.51990000  0.96860000  1.0
  O  O720  1  0.96340000  0.39790000  0.91440000  1.0
  O  O721  1  0.00550000  0.72890000  0.95830000  1.0
  O  O722  1  0.06720000  0.68580000  0.90850000  1.0
  O  O723  1  0.00700000  0.70800000  0.85590000  1.0
  O  O724  1  0.94060000  0.75340000  0.90590000  1.0
  O  O725  1  0.06180000  0.40910000  0.90570000  1.0
  O  O726  1  0.90190000  0.69390000  0.96980000  1.0
  O  O727  1  0.85120000  0.82390000  0.92550000  1.0
  O  O728  1  0.87130000  0.67360000  0.86980000  1.0
  O  O729  1  0.93400000  0.46040000  0.03990000  1.0
  O  O730  1  0.92810000  0.31440000  0.98140000  1.0
  O  O731  1  0.86320000  0.49330000  0.97950000  1.0
  O  O732  1  0.97880000  0.21600000  0.93560000  1.0
  O  O733  1  0.92070000  0.24980000  0.88190000  1.0
  O  O734  1  0.86720000  0.35230000  0.92650000  1.0
  O  O735  1  0.03010000  0.34990000  0.97080000  1.0
  O  O736  1  0.00970000  0.27560000  0.87300000  1.0
  O  O737  1  0.90710000  0.41630000  0.84500000  1.0
  O  O738  1  0.94050000  0.59240000  0.83510000  1.0
  O  O739  1  0.83640000  0.49150000  0.87920000  1.0
  O  O740  1  0.95580000  0.25500000  0.81050000  1.0
  O  O741  1  0.01930000  0.60110000  0.78980000  1.0
  O  O742  1  0.06280000  0.55180000  0.85750000  1.0
  O  O743  1  0.83170000  0.62390000  0.93130000  1.0
  O  O744  1  0.99590000  0.44100000  0.83710000  1.0
  O  O745  1  0.78230000  0.44510000  0.94210000  1.0
  O  O746  1  0.49460000  0.93080000  0.09470000  1.0
  O  O747  1  0.41100000  0.95480000  0.08520000  1.0
  O  O748  1  0.46610000  0.98010000  0.03140000  1.0
  O  O749  1  0.46340000  0.10210000  0.08560000  1.0
  O  O750  1  0.50550000  0.77110000  0.04170000  1.0
  O  O751  1  0.56720000  0.81420000  0.09150000  1.0
  O  O752  1  0.50700000  0.79200000  0.14410000  1.0
  O  O753  1  0.44060000  0.74660000  0.09410000  1.0
  O  O754  1  0.56180000  0.09090000  0.09430000  1.0
  O  O755  1  0.40190000  0.80610000  0.03020000  1.0
  O  O756  1  0.35120000  0.67610000  0.07450000  1.0
  O  O757  1  0.37130000  0.82640000  0.13020000  1.0
  O  O758  1  0.43400000  0.03960000  0.96010000  1.0
  O  O759  1  0.42810000  0.18560000  0.01860000  1.0
  O  O760  1  0.36320000  0.00670000  0.02050000  1.0
  O  O761  1  0.47880000  0.28400000  0.06440000  1.0
  O  O762  1  0.42070000  0.25020000  0.11810000  1.0
  O  O763  1  0.36720000  0.14770000  0.07350000  1.0
  O  O764  1  0.53010000  0.15010000  0.02920000  1.0
  O  O765  1  0.50970000  0.22440000  0.12700000  1.0
  O  O766  1  0.40710000  0.08370000  0.15500000  1.0
  O  O767  1  0.44050000  0.90760000  0.16490000  1.0
  O  O768  1  0.33640000  0.00850000  0.12080000  1.0
  O  O769  1  0.45580000  0.24500000  0.18950000  1.0
  O  O770  1  0.51930000  0.89890000  0.21020000  1.0
  O  O771  1  0.56280000  0.94820000  0.14250000  1.0
  O  O772  1  0.33170000  0.87610000  0.06870000  1.0
  O  O773  1  0.49590000  0.05900000  0.16290000  1.0
  O  O774  1  0.28230000  0.05490000  0.05790000  1.0
  O  O775  1  0.00540000  0.06920000  0.59470000  1.0
  O  O776  1  0.08900000  0.04520000  0.58520000  1.0
  O  O777  1  0.03390000  0.01990000  0.53140000  1.0
  O  O778  1  0.03660000  0.89790000  0.58560000  1.0
  O  O779  1  0.99450000  0.22890000  0.54170000  1.0
  O  O780  1  0.93280000  0.18580000  0.59150000  1.0
  O  O781  1  0.99300000  0.20800000  0.64410000  1.0
  O  O782  1  0.05940000  0.25340000  0.59410000  1.0
  O  O783  1  0.93820000  0.90910000  0.59430000  1.0
  O  O784  1  0.09810000  0.19390000  0.53020000  1.0
  O  O785  1  0.14880000  0.32390000  0.57450000  1.0
  O  O786  1  0.12870000  0.17360000  0.63020000  1.0
  O  O787  1  0.06600000  0.96040000  0.46010000  1.0
  O  O788  1  0.07190000  0.81440000  0.51860000  1.0
  O  O789  1  0.13680000  0.99330000  0.52050000  1.0
  O  O790  1  0.02120000  0.71600000  0.56440000  1.0
  O  O791  1  0.07930000  0.74980000  0.61810000  1.0
  O  O792  1  0.13280000  0.85230000  0.57350000  1.0
  O  O793  1  0.96990000  0.84990000  0.52920000  1.0
  O  O794  1  0.99030000  0.77560000  0.62700000  1.0
  O  O795  1  0.09290000  0.91630000  0.65500000  1.0
  O  O796  1  0.05950000  0.09240000  0.66490000  1.0
  O  O797  1  0.16360000  0.99150000  0.62080000  1.0
  O  O798  1  0.04420000  0.75500000  0.68950000  1.0
  O  O799  1  0.98070000  0.10110000  0.71020000  1.0
  O  O800  1  0.93720000  0.05180000  0.64250000  1.0
  O  O801  1  0.16830000  0.12390000  0.56870000  1.0
  O  O802  1  0.00410000  0.94100000  0.66290000  1.0
  O  O803  1  0.21770000  0.94510000  0.55790000  1.0
  O  O804  1  0.49460000  0.56920000  0.59470000  1.0
  O  O805  1  0.41100000  0.54520000  0.58520000  1.0
  O  O806  1  0.46610000  0.51990000  0.53140000  1.0
  O  O807  1  0.46340000  0.39790000  0.58560000  1.0
  O  O808  1  0.50550000  0.72890000  0.54170000  1.0
  O  O809  1  0.56720000  0.68580000  0.59150000  1.0
  O  O810  1  0.50700000  0.70800000  0.64410000  1.0
  O  O811  1  0.44060000  0.75340000  0.59410000  1.0
  O  O812  1  0.56180000  0.40910000  0.59430000  1.0
  O  O813  1  0.40190000  0.69390000  0.53020000  1.0
  O  O814  1  0.35120000  0.82390000  0.57450000  1.0
  O  O815  1  0.37130000  0.67360000  0.63020000  1.0
  O  O816  1  0.43400000  0.46040000  0.46010000  1.0
  O  O817  1  0.42810000  0.31440000  0.51860000  1.0
  O  O818  1  0.36320000  0.49330000  0.52050000  1.0
  O  O819  1  0.47880000  0.21600000  0.56440000  1.0
  O  O820  1  0.42070000  0.24980000  0.61810000  1.0
  O  O821  1  0.36720000  0.35230000  0.57350000  1.0
  O  O822  1  0.53010000  0.34990000  0.52920000  1.0
  O  O823  1  0.50970000  0.27560000  0.62700000  1.0
  O  O824  1  0.40710000  0.41630000  0.65500000  1.0
  O  O825  1  0.44050000  0.59240000  0.66490000  1.0
  O  O826  1  0.33640000  0.49150000  0.62080000  1.0
  O  O827  1  0.45580000  0.25500000  0.68950000  1.0
  O  O828  1  0.51930000  0.60110000  0.71020000  1.0
  O  O829  1  0.56280000  0.55180000  0.64250000  1.0
  O  O830  1  0.33170000  0.62390000  0.56870000  1.0
  O  O831  1  0.49590000  0.44100000  0.66290000  1.0
  O  O832  1  0.28230000  0.44510000  0.55790000  1.0
  O  O833  1  0.00540000  0.43080000  0.09470000  1.0
  O  O834  1  0.08900000  0.45480000  0.08520000  1.0
  O  O835  1  0.03390000  0.48010000  0.03140000  1.0
  O  O836  1  0.03660000  0.60210000  0.08560000  1.0
  O  O837  1  0.99450000  0.27110000  0.04170000  1.0
  O  O838  1  0.93280000  0.31420000  0.09150000  1.0
  O  O839  1  0.99300000  0.29200000  0.14410000  1.0
  O  O840  1  0.05940000  0.24660000  0.09410000  1.0
  O  O841  1  0.93820000  0.59090000  0.09430000  1.0
  O  O842  1  0.09810000  0.30610000  0.03020000  1.0
  O  O843  1  0.14880000  0.17610000  0.07450000  1.0
  O  O844  1  0.12870000  0.32640000  0.13020000  1.0
  O  O845  1  0.06600000  0.53960000  0.96010000  1.0
  O  O846  1  0.07190000  0.68560000  0.01860000  1.0
  O  O847  1  0.13680000  0.50670000  0.02050000  1.0
  O  O848  1  0.02120000  0.78400000  0.06440000  1.0
  O  O849  1  0.07930000  0.75020000  0.11810000  1.0
  O  O850  1  0.13280000  0.64770000  0.07350000  1.0
  O  O851  1  0.96990000  0.65010000  0.02920000  1.0
  O  O852  1  0.99030000  0.72440000  0.12700000  1.0
  O  O853  1  0.09290000  0.58370000  0.15500000  1.0
  O  O854  1  0.05950000  0.40760000  0.16490000  1.0
  O  O855  1  0.16360000  0.50850000  0.12080000  1.0
  O  O856  1  0.04420000  0.74500000  0.18950000  1.0
  O  O857  1  0.98070000  0.39890000  0.21020000  1.0
  O  O858  1  0.93720000  0.44820000  0.14250000  1.0
  O  O859  1  0.16830000  0.37610000  0.06870000  1.0
  O  O860  1  0.00410000  0.55900000  0.16290000  1.0
  O  O861  1  0.21770000  0.55490000  0.05790000  1.0
  O  O862  1  0.50540000  0.06920000  0.90530000  1.0
  O  O863  1  0.58900000  0.04520000  0.91480000  1.0
  O  O864  1  0.53390000  0.01990000  0.96860000  1.0
  O  O865  1  0.53660000  0.89790000  0.91440000  1.0
  O  O866  1  0.49450000  0.22890000  0.95830000  1.0
  O  O867  1  0.43280000  0.18580000  0.90850000  1.0
  O  O868  1  0.49300000  0.20800000  0.85590000  1.0
  O  O869  1  0.55940000  0.25340000  0.90590000  1.0
  O  O870  1  0.43820000  0.90910000  0.90570000  1.0
  O  O871  1  0.59810000  0.19390000  0.96980000  1.0
  O  O872  1  0.64880000  0.32390000  0.92550000  1.0
  O  O873  1  0.62870000  0.17360000  0.86980000  1.0
  O  O874  1  0.56600000  0.96040000  0.03990000  1.0
  O  O875  1  0.57190000  0.81440000  0.98140000  1.0
  O  O876  1  0.63680000  0.99330000  0.97950000  1.0
  O  O877  1  0.52120000  0.71600000  0.93560000  1.0
  O  O878  1  0.57930000  0.74980000  0.88190000  1.0
  O  O879  1  0.63280000  0.85230000  0.92650000  1.0
  O  O880  1  0.46990000  0.84990000  0.97080000  1.0
  O  O881  1  0.49030000  0.77560000  0.87300000  1.0
  O  O882  1  0.59290000  0.91630000  0.84500000  1.0
  O  O883  1  0.55950000  0.09240000  0.83510000  1.0
  O  O884  1  0.66360000  0.99150000  0.87920000  1.0
  O  O885  1  0.54420000  0.75500000  0.81050000  1.0
  O  O886  1  0.48070000  0.10110000  0.78980000  1.0
  O  O887  1  0.43720000  0.05180000  0.85750000  1.0
  O  O888  1  0.66830000  0.12390000  0.93130000  1.0
  O  O889  1  0.50410000  0.94100000  0.83710000  1.0
  O  O890  1  0.71770000  0.94510000  0.94210000  1.0
  O  O891  1  0.99460000  0.93080000  0.40530000  1.0
  O  O892  1  0.91100000  0.95480000  0.41480000  1.0
  O  O893  1  0.96610000  0.98010000  0.46860000  1.0
  O  O894  1  0.96340000  0.10210000  0.41440000  1.0
  O  O895  1  0.00550000  0.77110000  0.45830000  1.0
  O  O896  1  0.06720000  0.81420000  0.40850000  1.0
  O  O897  1  0.00700000  0.79200000  0.35590000  1.0
  O  O898  1  0.94060000  0.74660000  0.40590000  1.0
  O  O899  1  0.06180000  0.09090000  0.40570000  1.0
  O  O900  1  0.90190000  0.80610000  0.46980000  1.0
  O  O901  1  0.85120000  0.67610000  0.42550000  1.0
  O  O902  1  0.87130000  0.82640000  0.36980000  1.0
  O  O903  1  0.93400000  0.03960000  0.53990000  1.0
  O  O904  1  0.92810000  0.18560000  0.48140000  1.0
  O  O905  1  0.86320000  0.00670000  0.47950000  1.0
  O  O906  1  0.97880000  0.28400000  0.43560000  1.0
  O  O907  1  0.92070000  0.25020000  0.38190000  1.0
  O  O908  1  0.86720000  0.14770000  0.42650000  1.0
  O  O909  1  0.03010000  0.15010000  0.47080000  1.0
  O  O910  1  0.00970000  0.22440000  0.37300000  1.0
  O  O911  1  0.90710000  0.08370000  0.34500000  1.0
  O  O912  1  0.94050000  0.90760000  0.33510000  1.0
  O  O913  1  0.83640000  0.00850000  0.37920000  1.0
  O  O914  1  0.95580000  0.24500000  0.31050000  1.0
  O  O915  1  0.01930000  0.89890000  0.28980000  1.0
  O  O916  1  0.06280000  0.94820000  0.35750000  1.0
  O  O917  1  0.83170000  0.87610000  0.43130000  1.0
  O  O918  1  0.99590000  0.05900000  0.33710000  1.0
  O  O919  1  0.78230000  0.05490000  0.44210000  1.0
