# generated using pymatgen
data_TmCdH12(C4O5)3
_symmetry_space_group_name_H-M   'P 1'
_cell_length_a   26.12400000
_cell_length_b   26.12400000
_cell_length_c   26.12400000
_cell_angle_alpha   90.00000000
_cell_angle_beta   90.00000000
_cell_angle_gamma   90.00000000
_symmetry_Int_Tables_number   1
_chemical_formula_structural   TmCdH12(C4O5)3
_chemical_formula_sum   'Tm32 Cd32 H384 C384 O480'
_cell_volume   17828.67323462
_cell_formula_units_Z   32
loop_
 _symmetry_equiv_pos_site_id
 _symmetry_equiv_pos_as_xyz
  1  'x, y, z'
loop_
 _atom_site_type_symbol
 _atom_site_label
 _atom_site_symmetry_multiplicity
 _atom_site_fract_x
 _atom_site_fract_y
 _atom_site_fract_z
 _atom_site_occupancy
  Tm  Tm0  1  0.00000000  0.25000000  0.00000000  1.0
  Tm  Tm1  1  0.25000000  0.50000000  0.50000000  1.0
  Tm  Tm2  1  0.75000000  0.75000000  0.25000000  1.0
  Tm  Tm3  1  0.50000000  0.00000000  0.75000000  1.0
  Tm  Tm4  1  0.00000000  0.00000000  0.25000000  1.0
  Tm  Tm5  1  0.00000000  0.50000000  0.75000000  1.0
  Tm  Tm6  1  0.50000000  0.25000000  0.50000000  1.0
  Tm  Tm7  1  0.50000000  0.75000000  0.00000000  1.0
  Tm  Tm8  1  0.25000000  0.75000000  0.75000000  1.0
  Tm  Tm9  1  0.25000000  0.25000000  0.25000000  1.0
  Tm  Tm10  1  0.75000000  0.50000000  0.00000000  1.0
  Tm  Tm11  1  0.75000000  0.00000000  0.50000000  1.0
  Tm  Tm12  1  0.25000000  0.00000000  0.00000000  1.0
  Tm  Tm13  1  0.50000000  0.50000000  0.25000000  1.0
  Tm  Tm14  1  0.75000000  0.25000000  0.75000000  1.0
  Tm  Tm15  1  0.00000000  0.75000000  0.50000000  1.0
  Tm  Tm16  1  0.00000000  0.75000000  0.00000000  1.0
  Tm  Tm17  1  0.75000000  0.50000000  0.50000000  1.0
  Tm  Tm18  1  0.25000000  0.25000000  0.75000000  1.0
  Tm  Tm19  1  0.50000000  0.00000000  0.25000000  1.0
  Tm  Tm20  1  0.00000000  0.00000000  0.75000000  1.0
  Tm  Tm21  1  0.00000000  0.50000000  0.25000000  1.0
  Tm  Tm22  1  0.50000000  0.75000000  0.50000000  1.0
  Tm  Tm23  1  0.50000000  0.25000000  0.00000000  1.0
  Tm  Tm24  1  0.75000000  0.25000000  0.25000000  1.0
  Tm  Tm25  1  0.75000000  0.75000000  0.75000000  1.0
  Tm  Tm26  1  0.25000000  0.50000000  0.00000000  1.0
  Tm  Tm27  1  0.25000000  0.00000000  0.50000000  1.0
  Tm  Tm28  1  0.75000000  0.00000000  0.00000000  1.0
  Tm  Tm29  1  0.50000000  0.50000000  0.75000000  1.0
  Tm  Tm30  1  0.25000000  0.75000000  0.25000000  1.0
  Tm  Tm31  1  0.00000000  0.25000000  0.50000000  1.0
  Cd  Cd32  1  0.00000000  0.50000000  0.00000000  1.0
  Cd  Cd33  1  0.25000000  0.25000000  0.50000000  1.0
  Cd  Cd34  1  0.75000000  0.00000000  0.25000000  1.0
  Cd  Cd35  1  0.50000000  0.75000000  0.75000000  1.0
  Cd  Cd36  1  0.00000000  0.00000000  0.50000000  1.0
  Cd  Cd37  1  0.50000000  0.25000000  0.25000000  1.0
  Cd  Cd38  1  0.25000000  0.75000000  0.00000000  1.0
  Cd  Cd39  1  0.75000000  0.50000000  0.75000000  1.0
  Cd  Cd40  1  0.50000000  0.00000000  0.00000000  1.0
  Cd  Cd41  1  0.50000000  0.50000000  0.50000000  1.0
  Cd  Cd42  1  0.25000000  0.50000000  0.25000000  1.0
  Cd  Cd43  1  0.00000000  0.25000000  0.75000000  1.0
  Cd  Cd44  1  0.75000000  0.75000000  0.50000000  1.0
  Cd  Cd45  1  0.25000000  0.25000000  0.00000000  1.0
  Cd  Cd46  1  0.00000000  0.50000000  0.50000000  1.0
  Cd  Cd47  1  0.00000000  0.00000000  0.00000000  1.0
  Cd  Cd48  1  0.75000000  0.00000000  0.75000000  1.0
  Cd  Cd49  1  0.50000000  0.75000000  0.25000000  1.0
  Cd  Cd50  1  0.75000000  0.25000000  0.50000000  1.0
  Cd  Cd51  1  0.00000000  0.75000000  0.75000000  1.0
  Cd  Cd52  1  0.50000000  0.50000000  0.00000000  1.0
  Cd  Cd53  1  0.25000000  0.00000000  0.25000000  1.0
  Cd  Cd54  1  0.75000000  0.75000000  0.00000000  1.0
  Cd  Cd55  1  0.25000000  0.50000000  0.75000000  1.0
  Cd  Cd56  1  0.00000000  0.25000000  0.25000000  1.0
  Cd  Cd57  1  0.50000000  0.00000000  0.50000000  1.0
  Cd  Cd58  1  0.25000000  0.00000000  0.75000000  1.0
  Cd  Cd59  1  0.75000000  0.25000000  0.00000000  1.0
  Cd  Cd60  1  0.00000000  0.75000000  0.25000000  1.0
  Cd  Cd61  1  0.50000000  0.25000000  0.75000000  1.0
  Cd  Cd62  1  0.25000000  0.75000000  0.50000000  1.0
  Cd  Cd63  1  0.75000000  0.50000000  0.25000000  1.0
  H  H64  1  0.03230000  0.38260000  0.07120000  1.0
  H  H65  1  0.97250000  0.38490000  0.06480000  1.0
  H  H66  1  0.03230000  0.88260000  0.57120000  1.0
  H  H67  1  0.97250000  0.88490000  0.56480000  1.0
  H  H68  1  0.53230000  0.38260000  0.57120000  1.0
  H  H69  1  0.47250000  0.38490000  0.56480000  1.0
  H  H70  1  0.53230000  0.88260000  0.07120000  1.0
  H  H71  1  0.47250000  0.88490000  0.06480000  1.0
  H  H72  1  0.21770000  0.36740000  0.57120000  1.0
  H  H73  1  0.27750000  0.36510000  0.56480000  1.0
  H  H74  1  0.21770000  0.86740000  0.07120000  1.0
  H  H75  1  0.27750000  0.86510000  0.06480000  1.0
  H  H76  1  0.71770000  0.36740000  0.07120000  1.0
  H  H77  1  0.77750000  0.36510000  0.06480000  1.0
  H  H78  1  0.71770000  0.86740000  0.57120000  1.0
  H  H79  1  0.77750000  0.86510000  0.56480000  1.0
  H  H80  1  0.71770000  0.88260000  0.17880000  1.0
  H  H81  1  0.77750000  0.88490000  0.18520000  1.0
  H  H82  1  0.71770000  0.38260000  0.67880000  1.0
  H  H83  1  0.77750000  0.38490000  0.68520000  1.0
  H  H84  1  0.21770000  0.88260000  0.67880000  1.0
  H  H85  1  0.27750000  0.88490000  0.68520000  1.0
  H  H86  1  0.21770000  0.38260000  0.17880000  1.0
  H  H87  1  0.27750000  0.38490000  0.18520000  1.0
  H  H88  1  0.53230000  0.86740000  0.67880000  1.0
  H  H89  1  0.47250000  0.86510000  0.68520000  1.0
  H  H90  1  0.53230000  0.36740000  0.17880000  1.0
  H  H91  1  0.47250000  0.36510000  0.18520000  1.0
  H  H92  1  0.03230000  0.86740000  0.17880000  1.0
  H  H93  1  0.97250000  0.86510000  0.18520000  1.0
  H  H94  1  0.03230000  0.36740000  0.67880000  1.0
  H  H95  1  0.97250000  0.36510000  0.68520000  1.0
  H  H96  1  0.07120000  0.03230000  0.38260000  1.0
  H  H97  1  0.06480000  0.97250000  0.38490000  1.0
  H  H98  1  0.07120000  0.53230000  0.88260000  1.0
  H  H99  1  0.06480000  0.47250000  0.88490000  1.0
  H  H100  1  0.57120000  0.03230000  0.88260000  1.0
  H  H101  1  0.56480000  0.97250000  0.88490000  1.0
  H  H102  1  0.57120000  0.53230000  0.38260000  1.0
  H  H103  1  0.56480000  0.47250000  0.38490000  1.0
  H  H104  1  0.57120000  0.21770000  0.36740000  1.0
  H  H105  1  0.56480000  0.27750000  0.36510000  1.0
  H  H106  1  0.57120000  0.71770000  0.86740000  1.0
  H  H107  1  0.56480000  0.77750000  0.86510000  1.0
  H  H108  1  0.07120000  0.21770000  0.86740000  1.0
  H  H109  1  0.06480000  0.27750000  0.86510000  1.0
  H  H110  1  0.07120000  0.71770000  0.36740000  1.0
  H  H111  1  0.06480000  0.77750000  0.36510000  1.0
  H  H112  1  0.17880000  0.71770000  0.88260000  1.0
  H  H113  1  0.18520000  0.77750000  0.88490000  1.0
  H  H114  1  0.17880000  0.21770000  0.38260000  1.0
  H  H115  1  0.18520000  0.27750000  0.38490000  1.0
  H  H116  1  0.67880000  0.71770000  0.38260000  1.0
  H  H117  1  0.68520000  0.77750000  0.38490000  1.0
  H  H118  1  0.67880000  0.21770000  0.88260000  1.0
  H  H119  1  0.68520000  0.27750000  0.88490000  1.0
  H  H120  1  0.67880000  0.53230000  0.86740000  1.0
  H  H121  1  0.68520000  0.47250000  0.86510000  1.0
  H  H122  1  0.67880000  0.03230000  0.36740000  1.0
  H  H123  1  0.68520000  0.97250000  0.36510000  1.0
  H  H124  1  0.17880000  0.53230000  0.36740000  1.0
  H  H125  1  0.18520000  0.47250000  0.36510000  1.0
  H  H126  1  0.17880000  0.03230000  0.86740000  1.0
  H  H127  1  0.18520000  0.97250000  0.86510000  1.0
  H  H128  1  0.38260000  0.07120000  0.03230000  1.0
  H  H129  1  0.38490000  0.06480000  0.97250000  1.0
  H  H130  1  0.38260000  0.57120000  0.53230000  1.0
  H  H131  1  0.38490000  0.56480000  0.47250000  1.0
  H  H132  1  0.88260000  0.07120000  0.53230000  1.0
  H  H133  1  0.88490000  0.06480000  0.47250000  1.0
  H  H134  1  0.88260000  0.57120000  0.03230000  1.0
  H  H135  1  0.88490000  0.56480000  0.97250000  1.0
  H  H136  1  0.36740000  0.57120000  0.21770000  1.0
  H  H137  1  0.36510000  0.56480000  0.27750000  1.0
  H  H138  1  0.36740000  0.07120000  0.71770000  1.0
  H  H139  1  0.36510000  0.06480000  0.77750000  1.0
  H  H140  1  0.86740000  0.57120000  0.71770000  1.0
  H  H141  1  0.86510000  0.56480000  0.77750000  1.0
  H  H142  1  0.86740000  0.07120000  0.21770000  1.0
  H  H143  1  0.86510000  0.06480000  0.27750000  1.0
  H  H144  1  0.88260000  0.17880000  0.71770000  1.0
  H  H145  1  0.88490000  0.18520000  0.77750000  1.0
  H  H146  1  0.88260000  0.67880000  0.21770000  1.0
  H  H147  1  0.88490000  0.68520000  0.27750000  1.0
  H  H148  1  0.38260000  0.17880000  0.21770000  1.0
  H  H149  1  0.38490000  0.18520000  0.27750000  1.0
  H  H150  1  0.38260000  0.67880000  0.71770000  1.0
  H  H151  1  0.38490000  0.68520000  0.77750000  1.0
  H  H152  1  0.86740000  0.67880000  0.53230000  1.0
  H  H153  1  0.86510000  0.68520000  0.47250000  1.0
  H  H154  1  0.86740000  0.17880000  0.03230000  1.0
  H  H155  1  0.86510000  0.18520000  0.97250000  1.0
  H  H156  1  0.36740000  0.67880000  0.03230000  1.0
  H  H157  1  0.36510000  0.68520000  0.97250000  1.0
  H  H158  1  0.36740000  0.17880000  0.53230000  1.0
  H  H159  1  0.36510000  0.18520000  0.47250000  1.0
  H  H160  1  0.13260000  0.28230000  0.92880000  1.0
  H  H161  1  0.13490000  0.22250000  0.93520000  1.0
  H  H162  1  0.13260000  0.78230000  0.42880000  1.0
  H  H163  1  0.13490000  0.72250000  0.43520000  1.0
  H  H164  1  0.63260000  0.28230000  0.42880000  1.0
  H  H165  1  0.63490000  0.22250000  0.43520000  1.0
  H  H166  1  0.63260000  0.78230000  0.92880000  1.0
  H  H167  1  0.63490000  0.72250000  0.93520000  1.0
  H  H168  1  0.11740000  0.46770000  0.42880000  1.0
  H  H169  1  0.11510000  0.52750000  0.43520000  1.0
  H  H170  1  0.11740000  0.96770000  0.92880000  1.0
  H  H171  1  0.11510000  0.02750000  0.93520000  1.0
  H  H172  1  0.61740000  0.46770000  0.92880000  1.0
  H  H173  1  0.61510000  0.52750000  0.93520000  1.0
  H  H174  1  0.61740000  0.96770000  0.42880000  1.0
  H  H175  1  0.61510000  0.02750000  0.43520000  1.0
  H  H176  1  0.63260000  0.96770000  0.82120000  1.0
  H  H177  1  0.63490000  0.02750000  0.81480000  1.0
  H  H178  1  0.63260000  0.46770000  0.32120000  1.0
  H  H179  1  0.63490000  0.52750000  0.31480000  1.0
  H  H180  1  0.13260000  0.96770000  0.32120000  1.0
  H  H181  1  0.13490000  0.02750000  0.31480000  1.0
  H  H182  1  0.13260000  0.46770000  0.82120000  1.0
  H  H183  1  0.13490000  0.52750000  0.81480000  1.0
  H  H184  1  0.61740000  0.78230000  0.32120000  1.0
  H  H185  1  0.61510000  0.72250000  0.31480000  1.0
  H  H186  1  0.61740000  0.28230000  0.82120000  1.0
  H  H187  1  0.61510000  0.22250000  0.81480000  1.0
  H  H188  1  0.11740000  0.78230000  0.82120000  1.0
  H  H189  1  0.11510000  0.72250000  0.81480000  1.0
  H  H190  1  0.11740000  0.28230000  0.32120000  1.0
  H  H191  1  0.11510000  0.22250000  0.31480000  1.0
  H  H192  1  0.78230000  0.32120000  0.61740000  1.0
  H  H193  1  0.72250000  0.31480000  0.61510000  1.0
  H  H194  1  0.78230000  0.82120000  0.11740000  1.0
  H  H195  1  0.72250000  0.81480000  0.11510000  1.0
  H  H196  1  0.28230000  0.32120000  0.11740000  1.0
  H  H197  1  0.22250000  0.31480000  0.11510000  1.0
  H  H198  1  0.28230000  0.82120000  0.61740000  1.0
  H  H199  1  0.22250000  0.81480000  0.61510000  1.0
  H  H200  1  0.96770000  0.82120000  0.63260000  1.0
  H  H201  1  0.02750000  0.81480000  0.63490000  1.0
  H  H202  1  0.96770000  0.32120000  0.13260000  1.0
  H  H203  1  0.02750000  0.31480000  0.13490000  1.0
  H  H204  1  0.46770000  0.82120000  0.13260000  1.0
  H  H205  1  0.52750000  0.81480000  0.13490000  1.0
  H  H206  1  0.46770000  0.32120000  0.63260000  1.0
  H  H207  1  0.52750000  0.31480000  0.63490000  1.0
  H  H208  1  0.46770000  0.42880000  0.11740000  1.0
  H  H209  1  0.52750000  0.43520000  0.11510000  1.0
  H  H210  1  0.46770000  0.92880000  0.61740000  1.0
  H  H211  1  0.52750000  0.93520000  0.61510000  1.0
  H  H212  1  0.96770000  0.42880000  0.61740000  1.0
  H  H213  1  0.02750000  0.43520000  0.61510000  1.0
  H  H214  1  0.96770000  0.92880000  0.11740000  1.0
  H  H215  1  0.02750000  0.93520000  0.11510000  1.0
  H  H216  1  0.28230000  0.92880000  0.13260000  1.0
  H  H217  1  0.22250000  0.93520000  0.13490000  1.0
  H  H218  1  0.28230000  0.42880000  0.63260000  1.0
  H  H219  1  0.22250000  0.43520000  0.63490000  1.0
  H  H220  1  0.78230000  0.92880000  0.63260000  1.0
  H  H221  1  0.72250000  0.93520000  0.63490000  1.0
  H  H222  1  0.78230000  0.42880000  0.13260000  1.0
  H  H223  1  0.72250000  0.43520000  0.13490000  1.0
  H  H224  1  0.82120000  0.63260000  0.96770000  1.0
  H  H225  1  0.81480000  0.63490000  0.02750000  1.0
  H  H226  1  0.82120000  0.13260000  0.46770000  1.0
  H  H227  1  0.81480000  0.13490000  0.52750000  1.0
  H  H228  1  0.32120000  0.63260000  0.46770000  1.0
  H  H229  1  0.31480000  0.63490000  0.52750000  1.0
  H  H230  1  0.32120000  0.13260000  0.96770000  1.0
  H  H231  1  0.31480000  0.13490000  0.02750000  1.0
  H  H232  1  0.32120000  0.61740000  0.78230000  1.0
  H  H233  1  0.31480000  0.61510000  0.72250000  1.0
  H  H234  1  0.32120000  0.11740000  0.28230000  1.0
  H  H235  1  0.31480000  0.11510000  0.22250000  1.0
  H  H236  1  0.82120000  0.61740000  0.28230000  1.0
  H  H237  1  0.81480000  0.61510000  0.22250000  1.0
  H  H238  1  0.82120000  0.11740000  0.78230000  1.0
  H  H239  1  0.81480000  0.11510000  0.72250000  1.0
  H  H240  1  0.92880000  0.13260000  0.28230000  1.0
  H  H241  1  0.93520000  0.13490000  0.22250000  1.0
  H  H242  1  0.92880000  0.63260000  0.78230000  1.0
  H  H243  1  0.93520000  0.63490000  0.72250000  1.0
  H  H244  1  0.42880000  0.13260000  0.78230000  1.0
  H  H245  1  0.43520000  0.13490000  0.72250000  1.0
  H  H246  1  0.42880000  0.63260000  0.28230000  1.0
  H  H247  1  0.43520000  0.63490000  0.22250000  1.0
  H  H248  1  0.42880000  0.11740000  0.46770000  1.0
  H  H249  1  0.43520000  0.11510000  0.52750000  1.0
  H  H250  1  0.42880000  0.61740000  0.96770000  1.0
  H  H251  1  0.43520000  0.61510000  0.02750000  1.0
  H  H252  1  0.92880000  0.11740000  0.96770000  1.0
  H  H253  1  0.93520000  0.11510000  0.02750000  1.0
  H  H254  1  0.92880000  0.61740000  0.46770000  1.0
  H  H255  1  0.93520000  0.61510000  0.52750000  1.0
  H  H256  1  0.96770000  0.61740000  0.92880000  1.0
  H  H257  1  0.02750000  0.61510000  0.93520000  1.0
  H  H258  1  0.96770000  0.11740000  0.42880000  1.0
  H  H259  1  0.02750000  0.11510000  0.43520000  1.0
  H  H260  1  0.46770000  0.61740000  0.42880000  1.0
  H  H261  1  0.52750000  0.61510000  0.43520000  1.0
  H  H262  1  0.46770000  0.11740000  0.92880000  1.0
  H  H263  1  0.52750000  0.11510000  0.93520000  1.0
  H  H264  1  0.78230000  0.63260000  0.42880000  1.0
  H  H265  1  0.72250000  0.63490000  0.43520000  1.0
  H  H266  1  0.78230000  0.13260000  0.92880000  1.0
  H  H267  1  0.72250000  0.13490000  0.93520000  1.0
  H  H268  1  0.28230000  0.63260000  0.92880000  1.0
  H  H269  1  0.22250000  0.63490000  0.93520000  1.0
  H  H270  1  0.28230000  0.13260000  0.42880000  1.0
  H  H271  1  0.22250000  0.13490000  0.43520000  1.0
  H  H272  1  0.28230000  0.11740000  0.82120000  1.0
  H  H273  1  0.22250000  0.11510000  0.81480000  1.0
  H  H274  1  0.28230000  0.61740000  0.32120000  1.0
  H  H275  1  0.22250000  0.61510000  0.31480000  1.0
  H  H276  1  0.78230000  0.11740000  0.32120000  1.0
  H  H277  1  0.72250000  0.11510000  0.31480000  1.0
  H  H278  1  0.78230000  0.61740000  0.82120000  1.0
  H  H279  1  0.72250000  0.61510000  0.81480000  1.0
  H  H280  1  0.46770000  0.13260000  0.32120000  1.0
  H  H281  1  0.52750000  0.13490000  0.31480000  1.0
  H  H282  1  0.46770000  0.63260000  0.82120000  1.0
  H  H283  1  0.52750000  0.63490000  0.81480000  1.0
  H  H284  1  0.96770000  0.13260000  0.82120000  1.0
  H  H285  1  0.02750000  0.13490000  0.81480000  1.0
  H  H286  1  0.96770000  0.63260000  0.32120000  1.0
  H  H287  1  0.02750000  0.63490000  0.31480000  1.0
  H  H288  1  0.92880000  0.96770000  0.61740000  1.0
  H  H289  1  0.93520000  0.02750000  0.61510000  1.0
  H  H290  1  0.92880000  0.46770000  0.11740000  1.0
  H  H291  1  0.93520000  0.52750000  0.11510000  1.0
  H  H292  1  0.42880000  0.96770000  0.11740000  1.0
  H  H293  1  0.43520000  0.02750000  0.11510000  1.0
  H  H294  1  0.42880000  0.46770000  0.61740000  1.0
  H  H295  1  0.43520000  0.52750000  0.61510000  1.0
  H  H296  1  0.42880000  0.78230000  0.63260000  1.0
  H  H297  1  0.43520000  0.72250000  0.63490000  1.0
  H  H298  1  0.42880000  0.28230000  0.13260000  1.0
  H  H299  1  0.43520000  0.22250000  0.13490000  1.0
  H  H300  1  0.92880000  0.78230000  0.13260000  1.0
  H  H301  1  0.93520000  0.72250000  0.13490000  1.0
  H  H302  1  0.92880000  0.28230000  0.63260000  1.0
  H  H303  1  0.93520000  0.22250000  0.63490000  1.0
  H  H304  1  0.82120000  0.28230000  0.11740000  1.0
  H  H305  1  0.81480000  0.22250000  0.11510000  1.0
  H  H306  1  0.82120000  0.78230000  0.61740000  1.0
  H  H307  1  0.81480000  0.72250000  0.61510000  1.0
  H  H308  1  0.32120000  0.28230000  0.61740000  1.0
  H  H309  1  0.31480000  0.22250000  0.61510000  1.0
  H  H310  1  0.32120000  0.78230000  0.11740000  1.0
  H  H311  1  0.31480000  0.72250000  0.11510000  1.0
  H  H312  1  0.32120000  0.46770000  0.13260000  1.0
  H  H313  1  0.31480000  0.52750000  0.13490000  1.0
  H  H314  1  0.32120000  0.96770000  0.63260000  1.0
  H  H315  1  0.31480000  0.02750000  0.63490000  1.0
  H  H316  1  0.82120000  0.46770000  0.63260000  1.0
  H  H317  1  0.81480000  0.52750000  0.63490000  1.0
  H  H318  1  0.82120000  0.96770000  0.13260000  1.0
  H  H319  1  0.81480000  0.02750000  0.13490000  1.0
  H  H320  1  0.61740000  0.92880000  0.96770000  1.0
  H  H321  1  0.61510000  0.93520000  0.02750000  1.0
  H  H322  1  0.61740000  0.42880000  0.46770000  1.0
  H  H323  1  0.61510000  0.43520000  0.52750000  1.0
  H  H324  1  0.11740000  0.92880000  0.46770000  1.0
  H  H325  1  0.11510000  0.93520000  0.52750000  1.0
  H  H326  1  0.11740000  0.42880000  0.96770000  1.0
  H  H327  1  0.11510000  0.43520000  0.02750000  1.0
  H  H328  1  0.63260000  0.42880000  0.78230000  1.0
  H  H329  1  0.63490000  0.43520000  0.72250000  1.0
  H  H330  1  0.63260000  0.92880000  0.28230000  1.0
  H  H331  1  0.63490000  0.93520000  0.22250000  1.0
  H  H332  1  0.13260000  0.42880000  0.28230000  1.0
  H  H333  1  0.13490000  0.43520000  0.22250000  1.0
  H  H334  1  0.13260000  0.92880000  0.78230000  1.0
  H  H335  1  0.13490000  0.93520000  0.72250000  1.0
  H  H336  1  0.11740000  0.82120000  0.28230000  1.0
  H  H337  1  0.11510000  0.81480000  0.22250000  1.0
  H  H338  1  0.11740000  0.32120000  0.78230000  1.0
  H  H339  1  0.11510000  0.31480000  0.72250000  1.0
  H  H340  1  0.61740000  0.82120000  0.78230000  1.0
  H  H341  1  0.61510000  0.81480000  0.72250000  1.0
  H  H342  1  0.61740000  0.32120000  0.28230000  1.0
  H  H343  1  0.61510000  0.31480000  0.22250000  1.0
  H  H344  1  0.13260000  0.32120000  0.46770000  1.0
  H  H345  1  0.13490000  0.31480000  0.52750000  1.0
  H  H346  1  0.13260000  0.82120000  0.96770000  1.0
  H  H347  1  0.13490000  0.81480000  0.02750000  1.0
  H  H348  1  0.63260000  0.32120000  0.96770000  1.0
  H  H349  1  0.63490000  0.31480000  0.02750000  1.0
  H  H350  1  0.63260000  0.82120000  0.46770000  1.0
  H  H351  1  0.63490000  0.81480000  0.52750000  1.0
  H  H352  1  0.86740000  0.71770000  0.07120000  1.0
  H  H353  1  0.86510000  0.77750000  0.06480000  1.0
  H  H354  1  0.86740000  0.21770000  0.57120000  1.0
  H  H355  1  0.86510000  0.27750000  0.56480000  1.0
  H  H356  1  0.36740000  0.71770000  0.57120000  1.0
  H  H357  1  0.36510000  0.77750000  0.56480000  1.0
  H  H358  1  0.36740000  0.21770000  0.07120000  1.0
  H  H359  1  0.36510000  0.27750000  0.06480000  1.0
  H  H360  1  0.88260000  0.53230000  0.57120000  1.0
  H  H361  1  0.88490000  0.47250000  0.56480000  1.0
  H  H362  1  0.88260000  0.03230000  0.07120000  1.0
  H  H363  1  0.88490000  0.97250000  0.06480000  1.0
  H  H364  1  0.38260000  0.53230000  0.07120000  1.0
  H  H365  1  0.38490000  0.47250000  0.06480000  1.0
  H  H366  1  0.38260000  0.03230000  0.57120000  1.0
  H  H367  1  0.38490000  0.97250000  0.56480000  1.0
  H  H368  1  0.36740000  0.03230000  0.17880000  1.0
  H  H369  1  0.36510000  0.97250000  0.18520000  1.0
  H  H370  1  0.36740000  0.53230000  0.67880000  1.0
  H  H371  1  0.36510000  0.47250000  0.68520000  1.0
  H  H372  1  0.86740000  0.03230000  0.67880000  1.0
  H  H373  1  0.86510000  0.97250000  0.68520000  1.0
  H  H374  1  0.86740000  0.53230000  0.17880000  1.0
  H  H375  1  0.86510000  0.47250000  0.18520000  1.0
  H  H376  1  0.38260000  0.21770000  0.67880000  1.0
  H  H377  1  0.38490000  0.27750000  0.68520000  1.0
  H  H378  1  0.38260000  0.71770000  0.17880000  1.0
  H  H379  1  0.38490000  0.77750000  0.18520000  1.0
  H  H380  1  0.88260000  0.21770000  0.17880000  1.0
  H  H381  1  0.88490000  0.27750000  0.18520000  1.0
  H  H382  1  0.88260000  0.71770000  0.67880000  1.0
  H  H383  1  0.88490000  0.77750000  0.68520000  1.0
  H  H384  1  0.21770000  0.67880000  0.38260000  1.0
  H  H385  1  0.27750000  0.68520000  0.38490000  1.0
  H  H386  1  0.21770000  0.17880000  0.88260000  1.0
  H  H387  1  0.27750000  0.18520000  0.88490000  1.0
  H  H388  1  0.71770000  0.67880000  0.88260000  1.0
  H  H389  1  0.77750000  0.68520000  0.88490000  1.0
  H  H390  1  0.71770000  0.17880000  0.38260000  1.0
  H  H391  1  0.77750000  0.18520000  0.38490000  1.0
  H  H392  1  0.03230000  0.17880000  0.36740000  1.0
  H  H393  1  0.97250000  0.18520000  0.36510000  1.0
  H  H394  1  0.03230000  0.67880000  0.86740000  1.0
  H  H395  1  0.97250000  0.68520000  0.86510000  1.0
  H  H396  1  0.53230000  0.17880000  0.86740000  1.0
  H  H397  1  0.47250000  0.18520000  0.86510000  1.0
  H  H398  1  0.53230000  0.67880000  0.36740000  1.0
  H  H399  1  0.47250000  0.68520000  0.36510000  1.0
  H  H400  1  0.53230000  0.57120000  0.88260000  1.0
  H  H401  1  0.47250000  0.56480000  0.88490000  1.0
  H  H402  1  0.53230000  0.07120000  0.38260000  1.0
  H  H403  1  0.47250000  0.06480000  0.38490000  1.0
  H  H404  1  0.03230000  0.57120000  0.38260000  1.0
  H  H405  1  0.97250000  0.56480000  0.38490000  1.0
  H  H406  1  0.03230000  0.07120000  0.88260000  1.0
  H  H407  1  0.97250000  0.06480000  0.88490000  1.0
  H  H408  1  0.71770000  0.07120000  0.86740000  1.0
  H  H409  1  0.77750000  0.06480000  0.86510000  1.0
  H  H410  1  0.71770000  0.57120000  0.36740000  1.0
  H  H411  1  0.77750000  0.56480000  0.36510000  1.0
  H  H412  1  0.21770000  0.07120000  0.36740000  1.0
  H  H413  1  0.27750000  0.06480000  0.36510000  1.0
  H  H414  1  0.21770000  0.57120000  0.86740000  1.0
  H  H415  1  0.27750000  0.56480000  0.86510000  1.0
  H  H416  1  0.17880000  0.36740000  0.03230000  1.0
  H  H417  1  0.18520000  0.36510000  0.97250000  1.0
  H  H418  1  0.17880000  0.86740000  0.53230000  1.0
  H  H419  1  0.18520000  0.86510000  0.47250000  1.0
  H  H420  1  0.67880000  0.36740000  0.53230000  1.0
  H  H421  1  0.68520000  0.36510000  0.47250000  1.0
  H  H422  1  0.67880000  0.86740000  0.03230000  1.0
  H  H423  1  0.68520000  0.86510000  0.97250000  1.0
  H  H424  1  0.67880000  0.38260000  0.21770000  1.0
  H  H425  1  0.68520000  0.38490000  0.27750000  1.0
  H  H426  1  0.67880000  0.88260000  0.71770000  1.0
  H  H427  1  0.68520000  0.88490000  0.77750000  1.0
  H  H428  1  0.17880000  0.38260000  0.71770000  1.0
  H  H429  1  0.18520000  0.38490000  0.77750000  1.0
  H  H430  1  0.17880000  0.88260000  0.21770000  1.0
  H  H431  1  0.18520000  0.88490000  0.27750000  1.0
  H  H432  1  0.07120000  0.86740000  0.71770000  1.0
  H  H433  1  0.06480000  0.86510000  0.77750000  1.0
  H  H434  1  0.07120000  0.36740000  0.21770000  1.0
  H  H435  1  0.06480000  0.36510000  0.27750000  1.0
  H  H436  1  0.57120000  0.86740000  0.21770000  1.0
  H  H437  1  0.56480000  0.86510000  0.27750000  1.0
  H  H438  1  0.57120000  0.36740000  0.71770000  1.0
  H  H439  1  0.56480000  0.36510000  0.77750000  1.0
  H  H440  1  0.57120000  0.88260000  0.53230000  1.0
  H  H441  1  0.56480000  0.88490000  0.47250000  1.0
  H  H442  1  0.57120000  0.38260000  0.03230000  1.0
  H  H443  1  0.56480000  0.38490000  0.97250000  1.0
  H  H444  1  0.07120000  0.88260000  0.03230000  1.0
  H  H445  1  0.06480000  0.88490000  0.97250000  1.0
  H  H446  1  0.07120000  0.38260000  0.53230000  1.0
  H  H447  1  0.06480000  0.38490000  0.47250000  1.0
  C  C448  1  0.00330000  0.36750000  0.05360000  1.0
  C  C449  1  0.00960000  0.37330000  0.99730000  1.0
  C  C450  1  0.00330000  0.86750000  0.55360000  1.0
  C  C451  1  0.00960000  0.87330000  0.49730000  1.0
  C  C452  1  0.50330000  0.36750000  0.55360000  1.0
  C  C453  1  0.50960000  0.37330000  0.49730000  1.0
  C  C454  1  0.50330000  0.86750000  0.05360000  1.0
  C  C455  1  0.50960000  0.87330000  0.99730000  1.0
  C  C456  1  0.24670000  0.38250000  0.55360000  1.0
  C  C457  1  0.24040000  0.37670000  0.49730000  1.0
  C  C458  1  0.24670000  0.88250000  0.05360000  1.0
  C  C459  1  0.24040000  0.87670000  0.99730000  1.0
  C  C460  1  0.74670000  0.38250000  0.05360000  1.0
  C  C461  1  0.74040000  0.37670000  0.99730000  1.0
  C  C462  1  0.74670000  0.88250000  0.55360000  1.0
  C  C463  1  0.74040000  0.87670000  0.49730000  1.0
  C  C464  1  0.74670000  0.86750000  0.19640000  1.0
  C  C465  1  0.74040000  0.87330000  0.25270000  1.0
  C  C466  1  0.74670000  0.36750000  0.69640000  1.0
  C  C467  1  0.74040000  0.37330000  0.75270000  1.0
  C  C468  1  0.24670000  0.86750000  0.69640000  1.0
  C  C469  1  0.24040000  0.87330000  0.75270000  1.0
  C  C470  1  0.24670000  0.36750000  0.19640000  1.0
  C  C471  1  0.24040000  0.37330000  0.25270000  1.0
  C  C472  1  0.50330000  0.88250000  0.69640000  1.0
  C  C473  1  0.50960000  0.87670000  0.75270000  1.0
  C  C474  1  0.50330000  0.38250000  0.19640000  1.0
  C  C475  1  0.50960000  0.37670000  0.25270000  1.0
  C  C476  1  0.00330000  0.88250000  0.19640000  1.0
  C  C477  1  0.00960000  0.87670000  0.25270000  1.0
  C  C478  1  0.00330000  0.38250000  0.69640000  1.0
  C  C479  1  0.00960000  0.37670000  0.75270000  1.0
  C  C480  1  0.05360000  0.00330000  0.36750000  1.0
  C  C481  1  0.99730000  0.00960000  0.37330000  1.0
  C  C482  1  0.05360000  0.50330000  0.86750000  1.0
  C  C483  1  0.99730000  0.50960000  0.87330000  1.0
  C  C484  1  0.55360000  0.00330000  0.86750000  1.0
  C  C485  1  0.49730000  0.00960000  0.87330000  1.0
  C  C486  1  0.55360000  0.50330000  0.36750000  1.0
  C  C487  1  0.49730000  0.50960000  0.37330000  1.0
  C  C488  1  0.55360000  0.24670000  0.38250000  1.0
  C  C489  1  0.49730000  0.24040000  0.37670000  1.0
  C  C490  1  0.55360000  0.74670000  0.88250000  1.0
  C  C491  1  0.49730000  0.74040000  0.87670000  1.0
  C  C492  1  0.05360000  0.24670000  0.88250000  1.0
  C  C493  1  0.99730000  0.24040000  0.87670000  1.0
  C  C494  1  0.05360000  0.74670000  0.38250000  1.0
  C  C495  1  0.99730000  0.74040000  0.37670000  1.0
  C  C496  1  0.19640000  0.74670000  0.86750000  1.0
  C  C497  1  0.25270000  0.74040000  0.87330000  1.0
  C  C498  1  0.19640000  0.24670000  0.36750000  1.0
  C  C499  1  0.25270000  0.24040000  0.37330000  1.0
  C  C500  1  0.69640000  0.74670000  0.36750000  1.0
  C  C501  1  0.75270000  0.74040000  0.37330000  1.0
  C  C502  1  0.69640000  0.24670000  0.86750000  1.0
  C  C503  1  0.75270000  0.24040000  0.87330000  1.0
  C  C504  1  0.69640000  0.50330000  0.88250000  1.0
  C  C505  1  0.75270000  0.50960000  0.87670000  1.0
  C  C506  1  0.69640000  0.00330000  0.38250000  1.0
  C  C507  1  0.75270000  0.00960000  0.37670000  1.0
  C  C508  1  0.19640000  0.50330000  0.38250000  1.0
  C  C509  1  0.25270000  0.50960000  0.37670000  1.0
  C  C510  1  0.19640000  0.00330000  0.88250000  1.0
  C  C511  1  0.25270000  0.00960000  0.87670000  1.0
  C  C512  1  0.36750000  0.05360000  0.00330000  1.0
  C  C513  1  0.37330000  0.99730000  0.00960000  1.0
  C  C514  1  0.36750000  0.55360000  0.50330000  1.0
  C  C515  1  0.37330000  0.49730000  0.50960000  1.0
  C  C516  1  0.86750000  0.05360000  0.50330000  1.0
  C  C517  1  0.87330000  0.99730000  0.50960000  1.0
  C  C518  1  0.86750000  0.55360000  0.00330000  1.0
  C  C519  1  0.87330000  0.49730000  0.00960000  1.0
  C  C520  1  0.38250000  0.55360000  0.24670000  1.0
  C  C521  1  0.37670000  0.49730000  0.24040000  1.0
  C  C522  1  0.38250000  0.05360000  0.74670000  1.0
  C  C523  1  0.37670000  0.99730000  0.74040000  1.0
  C  C524  1  0.88250000  0.55360000  0.74670000  1.0
  C  C525  1  0.87670000  0.49730000  0.74040000  1.0
  C  C526  1  0.88250000  0.05360000  0.24670000  1.0
  C  C527  1  0.87670000  0.99730000  0.24040000  1.0
  C  C528  1  0.86750000  0.19640000  0.74670000  1.0
  C  C529  1  0.87330000  0.25270000  0.74040000  1.0
  C  C530  1  0.86750000  0.69640000  0.24670000  1.0
  C  C531  1  0.87330000  0.75270000  0.24040000  1.0
  C  C532  1  0.36750000  0.19640000  0.24670000  1.0
  C  C533  1  0.37330000  0.25270000  0.24040000  1.0
  C  C534  1  0.36750000  0.69640000  0.74670000  1.0
  C  C535  1  0.37330000  0.75270000  0.74040000  1.0
  C  C536  1  0.88250000  0.69640000  0.50330000  1.0
  C  C537  1  0.87670000  0.75270000  0.50960000  1.0
  C  C538  1  0.88250000  0.19640000  0.00330000  1.0
  C  C539  1  0.87670000  0.25270000  0.00960000  1.0
  C  C540  1  0.38250000  0.69640000  0.00330000  1.0
  C  C541  1  0.37670000  0.75270000  0.00960000  1.0
  C  C542  1  0.38250000  0.19640000  0.50330000  1.0
  C  C543  1  0.37670000  0.25270000  0.50960000  1.0
  C  C544  1  0.11750000  0.25330000  0.94640000  1.0
  C  C545  1  0.12330000  0.25960000  0.00270000  1.0
  C  C546  1  0.11750000  0.75330000  0.44640000  1.0
  C  C547  1  0.12330000  0.75960000  0.50270000  1.0
  C  C548  1  0.61750000  0.25330000  0.44640000  1.0
  C  C549  1  0.62330000  0.25960000  0.50270000  1.0
  C  C550  1  0.61750000  0.75330000  0.94640000  1.0
  C  C551  1  0.62330000  0.75960000  0.00270000  1.0
  C  C552  1  0.13250000  0.49670000  0.44640000  1.0
  C  C553  1  0.12670000  0.49040000  0.50270000  1.0
  C  C554  1  0.13250000  0.99670000  0.94640000  1.0
  C  C555  1  0.12670000  0.99040000  0.00270000  1.0
  C  C556  1  0.63250000  0.49670000  0.94640000  1.0
  C  C557  1  0.62670000  0.49040000  0.00270000  1.0
  C  C558  1  0.63250000  0.99670000  0.44640000  1.0
  C  C559  1  0.62670000  0.99040000  0.50270000  1.0
  C  C560  1  0.61750000  0.99670000  0.80360000  1.0
  C  C561  1  0.62330000  0.99040000  0.74730000  1.0
  C  C562  1  0.61750000  0.49670000  0.30360000  1.0
  C  C563  1  0.62330000  0.49040000  0.24730000  1.0
  C  C564  1  0.11750000  0.99670000  0.30360000  1.0
  C  C565  1  0.12330000  0.99040000  0.24730000  1.0
  C  C566  1  0.11750000  0.49670000  0.80360000  1.0
  C  C567  1  0.12330000  0.49040000  0.74730000  1.0
  C  C568  1  0.63250000  0.75330000  0.30360000  1.0
  C  C569  1  0.62670000  0.75960000  0.24730000  1.0
  C  C570  1  0.63250000  0.25330000  0.80360000  1.0
  C  C571  1  0.62670000  0.25960000  0.74730000  1.0
  C  C572  1  0.13250000  0.75330000  0.80360000  1.0
  C  C573  1  0.12670000  0.75960000  0.74730000  1.0
  C  C574  1  0.13250000  0.25330000  0.30360000  1.0
  C  C575  1  0.12670000  0.25960000  0.24730000  1.0
  C  C576  1  0.75330000  0.30360000  0.63250000  1.0
  C  C577  1  0.75960000  0.24730000  0.62670000  1.0
  C  C578  1  0.75330000  0.80360000  0.13250000  1.0
  C  C579  1  0.75960000  0.74730000  0.12670000  1.0
  C  C580  1  0.25330000  0.30360000  0.13250000  1.0
  C  C581  1  0.25960000  0.24730000  0.12670000  1.0
  C  C582  1  0.25330000  0.80360000  0.63250000  1.0
  C  C583  1  0.25960000  0.74730000  0.62670000  1.0
  C  C584  1  0.99670000  0.80360000  0.61750000  1.0
  C  C585  1  0.99040000  0.74730000  0.62330000  1.0
  C  C586  1  0.99670000  0.30360000  0.11750000  1.0
  C  C587  1  0.99040000  0.24730000  0.12330000  1.0
  C  C588  1  0.49670000  0.80360000  0.11750000  1.0
  C  C589  1  0.49040000  0.74730000  0.12330000  1.0
  C  C590  1  0.49670000  0.30360000  0.61750000  1.0
  C  C591  1  0.49040000  0.24730000  0.62330000  1.0
  C  C592  1  0.49670000  0.44640000  0.13250000  1.0
  C  C593  1  0.49040000  0.50270000  0.12670000  1.0
  C  C594  1  0.49670000  0.94640000  0.63250000  1.0
  C  C595  1  0.49040000  0.00270000  0.62670000  1.0
  C  C596  1  0.99670000  0.44640000  0.63250000  1.0
  C  C597  1  0.99040000  0.50270000  0.62670000  1.0
  C  C598  1  0.99670000  0.94640000  0.13250000  1.0
  C  C599  1  0.99040000  0.00270000  0.12670000  1.0
  C  C600  1  0.25330000  0.94640000  0.11750000  1.0
  C  C601  1  0.25960000  0.00270000  0.12330000  1.0
  C  C602  1  0.25330000  0.44640000  0.61750000  1.0
  C  C603  1  0.25960000  0.50270000  0.62330000  1.0
  C  C604  1  0.75330000  0.94640000  0.61750000  1.0
  C  C605  1  0.75960000  0.00270000  0.62330000  1.0
  C  C606  1  0.75330000  0.44640000  0.11750000  1.0
  C  C607  1  0.75960000  0.50270000  0.12330000  1.0
  C  C608  1  0.80360000  0.61750000  0.99670000  1.0
  C  C609  1  0.74730000  0.62330000  0.99040000  1.0
  C  C610  1  0.80360000  0.11750000  0.49670000  1.0
  C  C611  1  0.74730000  0.12330000  0.49040000  1.0
  C  C612  1  0.30360000  0.61750000  0.49670000  1.0
  C  C613  1  0.24730000  0.62330000  0.49040000  1.0
  C  C614  1  0.30360000  0.11750000  0.99670000  1.0
  C  C615  1  0.24730000  0.12330000  0.99040000  1.0
  C  C616  1  0.30360000  0.63250000  0.75330000  1.0
  C  C617  1  0.24730000  0.62670000  0.75960000  1.0
  C  C618  1  0.30360000  0.13250000  0.25330000  1.0
  C  C619  1  0.24730000  0.12670000  0.25960000  1.0
  C  C620  1  0.80360000  0.63250000  0.25330000  1.0
  C  C621  1  0.74730000  0.62670000  0.25960000  1.0
  C  C622  1  0.80360000  0.13250000  0.75330000  1.0
  C  C623  1  0.74730000  0.12670000  0.75960000  1.0
  C  C624  1  0.94640000  0.11750000  0.25330000  1.0
  C  C625  1  0.00270000  0.12330000  0.25960000  1.0
  C  C626  1  0.94640000  0.61750000  0.75330000  1.0
  C  C627  1  0.00270000  0.62330000  0.75960000  1.0
  C  C628  1  0.44640000  0.11750000  0.75330000  1.0
  C  C629  1  0.50270000  0.12330000  0.75960000  1.0
  C  C630  1  0.44640000  0.61750000  0.25330000  1.0
  C  C631  1  0.50270000  0.62330000  0.25960000  1.0
  C  C632  1  0.44640000  0.13250000  0.49670000  1.0
  C  C633  1  0.50270000  0.12670000  0.49040000  1.0
  C  C634  1  0.44640000  0.63250000  0.99670000  1.0
  C  C635  1  0.50270000  0.62670000  0.99040000  1.0
  C  C636  1  0.94640000  0.13250000  0.99670000  1.0
  C  C637  1  0.00270000  0.12670000  0.99040000  1.0
  C  C638  1  0.94640000  0.63250000  0.49670000  1.0
  C  C639  1  0.00270000  0.62670000  0.49040000  1.0
  C  C640  1  0.99670000  0.63250000  0.94640000  1.0
  C  C641  1  0.99040000  0.62670000  0.00270000  1.0
  C  C642  1  0.99670000  0.13250000  0.44640000  1.0
  C  C643  1  0.99040000  0.12670000  0.50270000  1.0
  C  C644  1  0.49670000  0.63250000  0.44640000  1.0
  C  C645  1  0.49040000  0.62670000  0.50270000  1.0
  C  C646  1  0.49670000  0.13250000  0.94640000  1.0
  C  C647  1  0.49040000  0.12670000  0.00270000  1.0
  C  C648  1  0.75330000  0.61750000  0.44640000  1.0
  C  C649  1  0.75960000  0.62330000  0.50270000  1.0
  C  C650  1  0.75330000  0.11750000  0.94640000  1.0
  C  C651  1  0.75960000  0.12330000  0.00270000  1.0
  C  C652  1  0.25330000  0.61750000  0.94640000  1.0
  C  C653  1  0.25960000  0.62330000  0.00270000  1.0
  C  C654  1  0.25330000  0.11750000  0.44640000  1.0
  C  C655  1  0.25960000  0.12330000  0.50270000  1.0
  C  C656  1  0.25330000  0.13250000  0.80360000  1.0
  C  C657  1  0.25960000  0.12670000  0.74730000  1.0
  C  C658  1  0.25330000  0.63250000  0.30360000  1.0
  C  C659  1  0.25960000  0.62670000  0.24730000  1.0
  C  C660  1  0.75330000  0.13250000  0.30360000  1.0
  C  C661  1  0.75960000  0.12670000  0.24730000  1.0
  C  C662  1  0.75330000  0.63250000  0.80360000  1.0
  C  C663  1  0.75960000  0.62670000  0.74730000  1.0
  C  C664  1  0.49670000  0.11750000  0.30360000  1.0
  C  C665  1  0.49040000  0.12330000  0.24730000  1.0
  C  C666  1  0.49670000  0.61750000  0.80360000  1.0
  C  C667  1  0.49040000  0.62330000  0.74730000  1.0
  C  C668  1  0.99670000  0.11750000  0.80360000  1.0
  C  C669  1  0.99040000  0.12330000  0.74730000  1.0
  C  C670  1  0.99670000  0.61750000  0.30360000  1.0
  C  C671  1  0.99040000  0.62330000  0.24730000  1.0
  C  C672  1  0.94640000  0.99670000  0.63250000  1.0
  C  C673  1  0.00270000  0.99040000  0.62670000  1.0
  C  C674  1  0.94640000  0.49670000  0.13250000  1.0
  C  C675  1  0.00270000  0.49040000  0.12670000  1.0
  C  C676  1  0.44640000  0.99670000  0.13250000  1.0
  C  C677  1  0.50270000  0.99040000  0.12670000  1.0
  C  C678  1  0.44640000  0.49670000  0.63250000  1.0
  C  C679  1  0.50270000  0.49040000  0.62670000  1.0
  C  C680  1  0.44640000  0.75330000  0.61750000  1.0
  C  C681  1  0.50270000  0.75960000  0.62330000  1.0
  C  C682  1  0.44640000  0.25330000  0.11750000  1.0
  C  C683  1  0.50270000  0.25960000  0.12330000  1.0
  C  C684  1  0.94640000  0.75330000  0.11750000  1.0
  C  C685  1  0.00270000  0.75960000  0.12330000  1.0
  C  C686  1  0.94640000  0.25330000  0.61750000  1.0
  C  C687  1  0.00270000  0.25960000  0.62330000  1.0
  C  C688  1  0.80360000  0.25330000  0.13250000  1.0
  C  C689  1  0.74730000  0.25960000  0.12670000  1.0
  C  C690  1  0.80360000  0.75330000  0.63250000  1.0
  C  C691  1  0.74730000  0.75960000  0.62670000  1.0
  C  C692  1  0.30360000  0.25330000  0.63250000  1.0
  C  C693  1  0.24730000  0.25960000  0.62670000  1.0
  C  C694  1  0.30360000  0.75330000  0.13250000  1.0
  C  C695  1  0.24730000  0.75960000  0.12670000  1.0
  C  C696  1  0.30360000  0.49670000  0.11750000  1.0
  C  C697  1  0.24730000  0.49040000  0.12330000  1.0
  C  C698  1  0.30360000  0.99670000  0.61750000  1.0
  C  C699  1  0.24730000  0.99040000  0.62330000  1.0
  C  C700  1  0.80360000  0.49670000  0.61750000  1.0
  C  C701  1  0.74730000  0.49040000  0.62330000  1.0
  C  C702  1  0.80360000  0.99670000  0.11750000  1.0
  C  C703  1  0.74730000  0.99040000  0.12330000  1.0
  C  C704  1  0.63250000  0.94640000  0.99670000  1.0
  C  C705  1  0.62670000  0.00270000  0.99040000  1.0
  C  C706  1  0.63250000  0.44640000  0.49670000  1.0
  C  C707  1  0.62670000  0.50270000  0.49040000  1.0
  C  C708  1  0.13250000  0.94640000  0.49670000  1.0
  C  C709  1  0.12670000  0.00270000  0.49040000  1.0
  C  C710  1  0.13250000  0.44640000  0.99670000  1.0
  C  C711  1  0.12670000  0.50270000  0.99040000  1.0
  C  C712  1  0.61750000  0.44640000  0.75330000  1.0
  C  C713  1  0.62330000  0.50270000  0.75960000  1.0
  C  C714  1  0.61750000  0.94640000  0.25330000  1.0
  C  C715  1  0.62330000  0.00270000  0.25960000  1.0
  C  C716  1  0.11750000  0.44640000  0.25330000  1.0
  C  C717  1  0.12330000  0.50270000  0.25960000  1.0
  C  C718  1  0.11750000  0.94640000  0.75330000  1.0
  C  C719  1  0.12330000  0.00270000  0.75960000  1.0
  C  C720  1  0.13250000  0.80360000  0.25330000  1.0
  C  C721  1  0.12670000  0.74730000  0.25960000  1.0
  C  C722  1  0.13250000  0.30360000  0.75330000  1.0
  C  C723  1  0.12670000  0.24730000  0.75960000  1.0
  C  C724  1  0.63250000  0.80360000  0.75330000  1.0
  C  C725  1  0.62670000  0.74730000  0.75960000  1.0
  C  C726  1  0.63250000  0.30360000  0.25330000  1.0
  C  C727  1  0.62670000  0.24730000  0.25960000  1.0
  C  C728  1  0.11750000  0.30360000  0.49670000  1.0
  C  C729  1  0.12330000  0.24730000  0.49040000  1.0
  C  C730  1  0.11750000  0.80360000  0.99670000  1.0
  C  C731  1  0.12330000  0.74730000  0.99040000  1.0
  C  C732  1  0.61750000  0.30360000  0.99670000  1.0
  C  C733  1  0.62330000  0.24730000  0.99040000  1.0
  C  C734  1  0.61750000  0.80360000  0.49670000  1.0
  C  C735  1  0.62330000  0.74730000  0.49040000  1.0
  C  C736  1  0.88250000  0.74670000  0.05360000  1.0
  C  C737  1  0.87670000  0.74040000  0.99730000  1.0
  C  C738  1  0.88250000  0.24670000  0.55360000  1.0
  C  C739  1  0.87670000  0.24040000  0.49730000  1.0
  C  C740  1  0.38250000  0.74670000  0.55360000  1.0
  C  C741  1  0.37670000  0.74040000  0.49730000  1.0
  C  C742  1  0.38250000  0.24670000  0.05360000  1.0
  C  C743  1  0.37670000  0.24040000  0.99730000  1.0
  C  C744  1  0.86750000  0.50330000  0.55360000  1.0
  C  C745  1  0.87330000  0.50960000  0.49730000  1.0
  C  C746  1  0.86750000  0.00330000  0.05360000  1.0
  C  C747  1  0.87330000  0.00960000  0.99730000  1.0
  C  C748  1  0.36750000  0.50330000  0.05360000  1.0
  C  C749  1  0.37330000  0.50960000  0.99730000  1.0
  C  C750  1  0.36750000  0.00330000  0.55360000  1.0
  C  C751  1  0.37330000  0.00960000  0.49730000  1.0
  C  C752  1  0.38250000  0.00330000  0.19640000  1.0
  C  C753  1  0.37670000  0.00960000  0.25270000  1.0
  C  C754  1  0.38250000  0.50330000  0.69640000  1.0
  C  C755  1  0.37670000  0.50960000  0.75270000  1.0
  C  C756  1  0.88250000  0.00330000  0.69640000  1.0
  C  C757  1  0.87670000  0.00960000  0.75270000  1.0
  C  C758  1  0.88250000  0.50330000  0.19640000  1.0
  C  C759  1  0.87670000  0.50960000  0.25270000  1.0
  C  C760  1  0.36750000  0.24670000  0.69640000  1.0
  C  C761  1  0.37330000  0.24040000  0.75270000  1.0
  C  C762  1  0.36750000  0.74670000  0.19640000  1.0
  C  C763  1  0.37330000  0.74040000  0.25270000  1.0
  C  C764  1  0.86750000  0.24670000  0.19640000  1.0
  C  C765  1  0.87330000  0.24040000  0.25270000  1.0
  C  C766  1  0.86750000  0.74670000  0.69640000  1.0
  C  C767  1  0.87330000  0.74040000  0.75270000  1.0
  C  C768  1  0.24670000  0.69640000  0.36750000  1.0
  C  C769  1  0.24040000  0.75270000  0.37330000  1.0
  C  C770  1  0.24670000  0.19640000  0.86750000  1.0
  C  C771  1  0.24040000  0.25270000  0.87330000  1.0
  C  C772  1  0.74670000  0.69640000  0.86750000  1.0
  C  C773  1  0.74040000  0.75270000  0.87330000  1.0
  C  C774  1  0.74670000  0.19640000  0.36750000  1.0
  C  C775  1  0.74040000  0.25270000  0.37330000  1.0
  C  C776  1  0.00330000  0.19640000  0.38250000  1.0
  C  C777  1  0.00960000  0.25270000  0.37670000  1.0
  C  C778  1  0.00330000  0.69640000  0.88250000  1.0
  C  C779  1  0.00960000  0.75270000  0.87670000  1.0
  C  C780  1  0.50330000  0.19640000  0.88250000  1.0
  C  C781  1  0.50960000  0.25270000  0.87670000  1.0
  C  C782  1  0.50330000  0.69640000  0.38250000  1.0
  C  C783  1  0.50960000  0.75270000  0.37670000  1.0
  C  C784  1  0.50330000  0.55360000  0.86750000  1.0
  C  C785  1  0.50960000  0.49730000  0.87330000  1.0
  C  C786  1  0.50330000  0.05360000  0.36750000  1.0
  C  C787  1  0.50960000  0.99730000  0.37330000  1.0
  C  C788  1  0.00330000  0.55360000  0.36750000  1.0
  C  C789  1  0.00960000  0.49730000  0.37330000  1.0
  C  C790  1  0.00330000  0.05360000  0.86750000  1.0
  C  C791  1  0.00960000  0.99730000  0.87330000  1.0
  C  C792  1  0.74670000  0.05360000  0.88250000  1.0
  C  C793  1  0.74040000  0.99730000  0.87670000  1.0
  C  C794  1  0.74670000  0.55360000  0.38250000  1.0
  C  C795  1  0.74040000  0.49730000  0.37670000  1.0
  C  C796  1  0.24670000  0.05360000  0.38250000  1.0
  C  C797  1  0.24040000  0.99730000  0.37670000  1.0
  C  C798  1  0.24670000  0.55360000  0.88250000  1.0
  C  C799  1  0.24040000  0.49730000  0.87670000  1.0
  C  C800  1  0.19640000  0.38250000  0.00330000  1.0
  C  C801  1  0.25270000  0.37670000  0.00960000  1.0
  C  C802  1  0.19640000  0.88250000  0.50330000  1.0
  C  C803  1  0.25270000  0.87670000  0.50960000  1.0
  C  C804  1  0.69640000  0.38250000  0.50330000  1.0
  C  C805  1  0.75270000  0.37670000  0.50960000  1.0
  C  C806  1  0.69640000  0.88250000  0.00330000  1.0
  C  C807  1  0.75270000  0.87670000  0.00960000  1.0
  C  C808  1  0.69640000  0.36750000  0.24670000  1.0
  C  C809  1  0.75270000  0.37330000  0.24040000  1.0
  C  C810  1  0.69640000  0.86750000  0.74670000  1.0
  C  C811  1  0.75270000  0.87330000  0.74040000  1.0
  C  C812  1  0.19640000  0.36750000  0.74670000  1.0
  C  C813  1  0.25270000  0.37330000  0.74040000  1.0
  C  C814  1  0.19640000  0.86750000  0.24670000  1.0
  C  C815  1  0.25270000  0.87330000  0.24040000  1.0
  C  C816  1  0.05360000  0.88250000  0.74670000  1.0
  C  C817  1  0.99730000  0.87670000  0.74040000  1.0
  C  C818  1  0.05360000  0.38250000  0.24670000  1.0
  C  C819  1  0.99730000  0.37670000  0.24040000  1.0
  C  C820  1  0.55360000  0.88250000  0.24670000  1.0
  C  C821  1  0.49730000  0.87670000  0.24040000  1.0
  C  C822  1  0.55360000  0.38250000  0.74670000  1.0
  C  C823  1  0.49730000  0.37670000  0.74040000  1.0
  C  C824  1  0.55360000  0.86750000  0.50330000  1.0
  C  C825  1  0.49730000  0.87330000  0.50960000  1.0
  C  C826  1  0.55360000  0.36750000  0.00330000  1.0
  C  C827  1  0.49730000  0.37330000  0.00960000  1.0
  C  C828  1  0.05360000  0.86750000  0.00330000  1.0
  C  C829  1  0.99730000  0.87330000  0.00960000  1.0
  C  C830  1  0.05360000  0.36750000  0.50330000  1.0
  C  C831  1  0.99730000  0.37330000  0.50960000  1.0
  O  O832  1  0.01440000  0.41730000  0.97690000  1.0
  O  O833  1  0.00890000  0.33380000  0.96990000  1.0
  O  O834  1  0.01440000  0.91730000  0.47690000  1.0
  O  O835  1  0.00890000  0.83380000  0.46990000  1.0
  O  O836  1  0.51440000  0.41730000  0.47690000  1.0
  O  O837  1  0.50890000  0.33380000  0.46990000  1.0
  O  O838  1  0.51440000  0.91730000  0.97690000  1.0
  O  O839  1  0.50890000  0.83380000  0.96990000  1.0
  O  O840  1  0.23560000  0.33270000  0.47690000  1.0
  O  O841  1  0.24110000  0.41620000  0.46990000  1.0
  O  O842  1  0.23560000  0.83270000  0.97690000  1.0
  O  O843  1  0.24110000  0.91620000  0.96990000  1.0
  O  O844  1  0.73560000  0.33270000  0.97690000  1.0
  O  O845  1  0.74110000  0.41620000  0.96990000  1.0
  O  O846  1  0.73560000  0.83270000  0.47690000  1.0
  O  O847  1  0.74110000  0.91620000  0.46990000  1.0
  O  O848  1  0.73560000  0.91730000  0.27310000  1.0
  O  O849  1  0.74110000  0.83380000  0.28010000  1.0
  O  O850  1  0.73560000  0.41730000  0.77310000  1.0
  O  O851  1  0.74110000  0.33380000  0.78010000  1.0
  O  O852  1  0.23560000  0.91730000  0.77310000  1.0
  O  O853  1  0.24110000  0.83380000  0.78010000  1.0
  O  O854  1  0.23560000  0.41730000  0.27310000  1.0
  O  O855  1  0.24110000  0.33380000  0.28010000  1.0
  O  O856  1  0.51440000  0.83270000  0.77310000  1.0
  O  O857  1  0.50890000  0.91620000  0.78010000  1.0
  O  O858  1  0.51440000  0.33270000  0.27310000  1.0
  O  O859  1  0.50890000  0.41620000  0.28010000  1.0
  O  O860  1  0.01440000  0.83270000  0.27310000  1.0
  O  O861  1  0.00890000  0.91620000  0.28010000  1.0
  O  O862  1  0.01440000  0.33270000  0.77310000  1.0
  O  O863  1  0.00890000  0.41620000  0.78010000  1.0
  O  O864  1  0.97690000  0.01440000  0.41730000  1.0
  O  O865  1  0.96990000  0.00890000  0.33380000  1.0
  O  O866  1  0.97690000  0.51440000  0.91730000  1.0
  O  O867  1  0.96990000  0.50890000  0.83380000  1.0
  O  O868  1  0.47690000  0.01440000  0.91730000  1.0
  O  O869  1  0.46990000  0.00890000  0.83380000  1.0
  O  O870  1  0.47690000  0.51440000  0.41730000  1.0
  O  O871  1  0.46990000  0.50890000  0.33380000  1.0
  O  O872  1  0.47690000  0.23560000  0.33270000  1.0
  O  O873  1  0.46990000  0.24110000  0.41620000  1.0
  O  O874  1  0.47690000  0.73560000  0.83270000  1.0
  O  O875  1  0.46990000  0.74110000  0.91620000  1.0
  O  O876  1  0.97690000  0.23560000  0.83270000  1.0
  O  O877  1  0.96990000  0.24110000  0.91620000  1.0
  O  O878  1  0.97690000  0.73560000  0.33270000  1.0
  O  O879  1  0.96990000  0.74110000  0.41620000  1.0
  O  O880  1  0.27310000  0.73560000  0.91730000  1.0
  O  O881  1  0.28010000  0.74110000  0.83380000  1.0
  O  O882  1  0.27310000  0.23560000  0.41730000  1.0
  O  O883  1  0.28010000  0.24110000  0.33380000  1.0
  O  O884  1  0.77310000  0.73560000  0.41730000  1.0
  O  O885  1  0.78010000  0.74110000  0.33380000  1.0
  O  O886  1  0.77310000  0.23560000  0.91730000  1.0
  O  O887  1  0.78010000  0.24110000  0.83380000  1.0
  O  O888  1  0.77310000  0.51440000  0.83270000  1.0
  O  O889  1  0.78010000  0.50890000  0.91620000  1.0
  O  O890  1  0.77310000  0.01440000  0.33270000  1.0
  O  O891  1  0.78010000  0.00890000  0.41620000  1.0
  O  O892  1  0.27310000  0.51440000  0.33270000  1.0
  O  O893  1  0.28010000  0.50890000  0.41620000  1.0
  O  O894  1  0.27310000  0.01440000  0.83270000  1.0
  O  O895  1  0.28010000  0.00890000  0.91620000  1.0
  O  O896  1  0.41730000  0.97690000  0.01440000  1.0
  O  O897  1  0.33380000  0.96990000  0.00890000  1.0
  O  O898  1  0.41730000  0.47690000  0.51440000  1.0
  O  O899  1  0.33380000  0.46990000  0.50890000  1.0
  O  O900  1  0.91730000  0.97690000  0.51440000  1.0
  O  O901  1  0.83380000  0.96990000  0.50890000  1.0
  O  O902  1  0.91730000  0.47690000  0.01440000  1.0
  O  O903  1  0.83380000  0.46990000  0.00890000  1.0
  O  O904  1  0.33270000  0.47690000  0.23560000  1.0
  O  O905  1  0.41620000  0.46990000  0.24110000  1.0
  O  O906  1  0.33270000  0.97690000  0.73560000  1.0
  O  O907  1  0.41620000  0.96990000  0.74110000  1.0
  O  O908  1  0.83270000  0.47690000  0.73560000  1.0
  O  O909  1  0.91620000  0.46990000  0.74110000  1.0
  O  O910  1  0.83270000  0.97690000  0.23560000  1.0
  O  O911  1  0.91620000  0.96990000  0.24110000  1.0
  O  O912  1  0.91730000  0.27310000  0.73560000  1.0
  O  O913  1  0.83380000  0.28010000  0.74110000  1.0
  O  O914  1  0.91730000  0.77310000  0.23560000  1.0
  O  O915  1  0.83380000  0.78010000  0.24110000  1.0
  O  O916  1  0.41730000  0.27310000  0.23560000  1.0
  O  O917  1  0.33380000  0.28010000  0.24110000  1.0
  O  O918  1  0.41730000  0.77310000  0.73560000  1.0
  O  O919  1  0.33380000  0.78010000  0.74110000  1.0
  O  O920  1  0.83270000  0.77310000  0.51440000  1.0
  O  O921  1  0.91620000  0.78010000  0.50890000  1.0
  O  O922  1  0.83270000  0.27310000  0.01440000  1.0
  O  O923  1  0.91620000  0.28010000  0.00890000  1.0
  O  O924  1  0.33270000  0.77310000  0.01440000  1.0
  O  O925  1  0.41620000  0.78010000  0.00890000  1.0
  O  O926  1  0.33270000  0.27310000  0.51440000  1.0
  O  O927  1  0.41620000  0.28010000  0.50890000  1.0
  O  O928  1  0.16730000  0.26440000  0.02310000  1.0
  O  O929  1  0.08380000  0.25890000  0.03010000  1.0
  O  O930  1  0.16730000  0.76440000  0.52310000  1.0
  O  O931  1  0.08380000  0.75890000  0.53010000  1.0
  O  O932  1  0.66730000  0.26440000  0.52310000  1.0
  O  O933  1  0.58380000  0.25890000  0.53010000  1.0
  O  O934  1  0.66730000  0.76440000  0.02310000  1.0
  O  O935  1  0.58380000  0.75890000  0.03010000  1.0
  O  O936  1  0.08270000  0.48560000  0.52310000  1.0
  O  O937  1  0.16620000  0.49110000  0.53010000  1.0
  O  O938  1  0.08270000  0.98560000  0.02310000  1.0
  O  O939  1  0.16620000  0.99110000  0.03010000  1.0
  O  O940  1  0.58270000  0.48560000  0.02310000  1.0
  O  O941  1  0.66620000  0.49110000  0.03010000  1.0
  O  O942  1  0.58270000  0.98560000  0.52310000  1.0
  O  O943  1  0.66620000  0.99110000  0.53010000  1.0
  O  O944  1  0.66730000  0.98560000  0.72690000  1.0
  O  O945  1  0.58380000  0.99110000  0.71990000  1.0
  O  O946  1  0.66730000  0.48560000  0.22690000  1.0
  O  O947  1  0.58380000  0.49110000  0.21990000  1.0
  O  O948  1  0.16730000  0.98560000  0.22690000  1.0
  O  O949  1  0.08380000  0.99110000  0.21990000  1.0
  O  O950  1  0.16730000  0.48560000  0.72690000  1.0
  O  O951  1  0.08380000  0.49110000  0.71990000  1.0
  O  O952  1  0.58270000  0.76440000  0.22690000  1.0
  O  O953  1  0.66620000  0.75890000  0.21990000  1.0
  O  O954  1  0.58270000  0.26440000  0.72690000  1.0
  O  O955  1  0.66620000  0.25890000  0.71990000  1.0
  O  O956  1  0.08270000  0.76440000  0.72690000  1.0
  O  O957  1  0.16620000  0.75890000  0.71990000  1.0
  O  O958  1  0.08270000  0.26440000  0.22690000  1.0
  O  O959  1  0.16620000  0.25890000  0.21990000  1.0
  O  O960  1  0.76440000  0.22690000  0.58270000  1.0
  O  O961  1  0.75890000  0.21990000  0.66620000  1.0
  O  O962  1  0.76440000  0.72690000  0.08270000  1.0
  O  O963  1  0.75890000  0.71990000  0.16620000  1.0
  O  O964  1  0.26440000  0.22690000  0.08270000  1.0
  O  O965  1  0.25890000  0.21990000  0.16620000  1.0
  O  O966  1  0.26440000  0.72690000  0.58270000  1.0
  O  O967  1  0.25890000  0.71990000  0.66620000  1.0
  O  O968  1  0.98560000  0.72690000  0.66730000  1.0
  O  O969  1  0.99110000  0.71990000  0.58380000  1.0
  O  O970  1  0.98560000  0.22690000  0.16730000  1.0
  O  O971  1  0.99110000  0.21990000  0.08380000  1.0
  O  O972  1  0.48560000  0.72690000  0.16730000  1.0
  O  O973  1  0.49110000  0.71990000  0.08380000  1.0
  O  O974  1  0.48560000  0.22690000  0.66730000  1.0
  O  O975  1  0.49110000  0.21990000  0.58380000  1.0
  O  O976  1  0.48560000  0.52310000  0.08270000  1.0
  O  O977  1  0.49110000  0.53010000  0.16620000  1.0
  O  O978  1  0.48560000  0.02310000  0.58270000  1.0
  O  O979  1  0.49110000  0.03010000  0.66620000  1.0
  O  O980  1  0.98560000  0.52310000  0.58270000  1.0
  O  O981  1  0.99110000  0.53010000  0.66620000  1.0
  O  O982  1  0.98560000  0.02310000  0.08270000  1.0
  O  O983  1  0.99110000  0.03010000  0.16620000  1.0
  O  O984  1  0.26440000  0.02310000  0.16730000  1.0
  O  O985  1  0.25890000  0.03010000  0.08380000  1.0
  O  O986  1  0.26440000  0.52310000  0.66730000  1.0
  O  O987  1  0.25890000  0.53010000  0.58380000  1.0
  O  O988  1  0.76440000  0.02310000  0.66730000  1.0
  O  O989  1  0.75890000  0.03010000  0.58380000  1.0
  O  O990  1  0.76440000  0.52310000  0.16730000  1.0
  O  O991  1  0.75890000  0.53010000  0.08380000  1.0
  O  O992  1  0.72690000  0.66730000  0.98560000  1.0
  O  O993  1  0.71990000  0.58380000  0.99110000  1.0
  O  O994  1  0.72690000  0.16730000  0.48560000  1.0
  O  O995  1  0.71990000  0.08380000  0.49110000  1.0
  O  O996  1  0.22690000  0.66730000  0.48560000  1.0
  O  O997  1  0.21990000  0.58380000  0.49110000  1.0
  O  O998  1  0.22690000  0.16730000  0.98560000  1.0
  O  O999  1  0.21990000  0.08380000  0.99110000  1.0
  O  O1000  1  0.22690000  0.58270000  0.76440000  1.0
  O  O1001  1  0.21990000  0.66620000  0.75890000  1.0
  O  O1002  1  0.22690000  0.08270000  0.26440000  1.0
  O  O1003  1  0.21990000  0.16620000  0.25890000  1.0
  O  O1004  1  0.72690000  0.58270000  0.26440000  1.0
  O  O1005  1  0.71990000  0.66620000  0.25890000  1.0
  O  O1006  1  0.72690000  0.08270000  0.76440000  1.0
  O  O1007  1  0.71990000  0.16620000  0.75890000  1.0
  O  O1008  1  0.02310000  0.16730000  0.26440000  1.0
  O  O1009  1  0.03010000  0.08380000  0.25890000  1.0
  O  O1010  1  0.02310000  0.66730000  0.76440000  1.0
  O  O1011  1  0.03010000  0.58380000  0.75890000  1.0
  O  O1012  1  0.52310000  0.16730000  0.76440000  1.0
  O  O1013  1  0.53010000  0.08380000  0.75890000  1.0
  O  O1014  1  0.52310000  0.66730000  0.26440000  1.0
  O  O1015  1  0.53010000  0.58380000  0.25890000  1.0
  O  O1016  1  0.52310000  0.08270000  0.48560000  1.0
  O  O1017  1  0.53010000  0.16620000  0.49110000  1.0
  O  O1018  1  0.52310000  0.58270000  0.98560000  1.0
  O  O1019  1  0.53010000  0.66620000  0.99110000  1.0
  O  O1020  1  0.02310000  0.08270000  0.98560000  1.0
  O  O1021  1  0.03010000  0.16620000  0.99110000  1.0
  O  O1022  1  0.02310000  0.58270000  0.48560000  1.0
  O  O1023  1  0.03010000  0.66620000  0.49110000  1.0
  O  O1024  1  0.98560000  0.58270000  0.02310000  1.0
  O  O1025  1  0.99110000  0.66620000  0.03010000  1.0
  O  O1026  1  0.98560000  0.08270000  0.52310000  1.0
  O  O1027  1  0.99110000  0.16620000  0.53010000  1.0
  O  O1028  1  0.48560000  0.58270000  0.52310000  1.0
  O  O1029  1  0.49110000  0.66620000  0.53010000  1.0
  O  O1030  1  0.48560000  0.08270000  0.02310000  1.0
  O  O1031  1  0.49110000  0.16620000  0.03010000  1.0
  O  O1032  1  0.76440000  0.66730000  0.52310000  1.0
  O  O1033  1  0.75890000  0.58380000  0.53010000  1.0
  O  O1034  1  0.76440000  0.16730000  0.02310000  1.0
  O  O1035  1  0.75890000  0.08380000  0.03010000  1.0
  O  O1036  1  0.26440000  0.66730000  0.02310000  1.0
  O  O1037  1  0.25890000  0.58380000  0.03010000  1.0
  O  O1038  1  0.26440000  0.16730000  0.52310000  1.0
  O  O1039  1  0.25890000  0.08380000  0.53010000  1.0
  O  O1040  1  0.26440000  0.08270000  0.72690000  1.0
  O  O1041  1  0.25890000  0.16620000  0.71990000  1.0
  O  O1042  1  0.26440000  0.58270000  0.22690000  1.0
  O  O1043  1  0.25890000  0.66620000  0.21990000  1.0
  O  O1044  1  0.76440000  0.08270000  0.22690000  1.0
  O  O1045  1  0.75890000  0.16620000  0.21990000  1.0
  O  O1046  1  0.76440000  0.58270000  0.72690000  1.0
  O  O1047  1  0.75890000  0.66620000  0.71990000  1.0
  O  O1048  1  0.48560000  0.16730000  0.22690000  1.0
  O  O1049  1  0.49110000  0.08380000  0.21990000  1.0
  O  O1050  1  0.48560000  0.66730000  0.72690000  1.0
  O  O1051  1  0.49110000  0.58380000  0.71990000  1.0
  O  O1052  1  0.98560000  0.16730000  0.72690000  1.0
  O  O1053  1  0.99110000  0.08380000  0.71990000  1.0
  O  O1054  1  0.98560000  0.66730000  0.22690000  1.0
  O  O1055  1  0.99110000  0.58380000  0.21990000  1.0
  O  O1056  1  0.02310000  0.98560000  0.58270000  1.0
  O  O1057  1  0.03010000  0.99110000  0.66620000  1.0
  O  O1058  1  0.02310000  0.48560000  0.08270000  1.0
  O  O1059  1  0.03010000  0.49110000  0.16620000  1.0
  O  O1060  1  0.52310000  0.98560000  0.08270000  1.0
  O  O1061  1  0.53010000  0.99110000  0.16620000  1.0
  O  O1062  1  0.52310000  0.48560000  0.58270000  1.0
  O  O1063  1  0.53010000  0.49110000  0.66620000  1.0
  O  O1064  1  0.52310000  0.76440000  0.66730000  1.0
  O  O1065  1  0.53010000  0.75890000  0.58380000  1.0
  O  O1066  1  0.52310000  0.26440000  0.16730000  1.0
  O  O1067  1  0.53010000  0.25890000  0.08380000  1.0
  O  O1068  1  0.02310000  0.76440000  0.16730000  1.0
  O  O1069  1  0.03010000  0.75890000  0.08380000  1.0
  O  O1070  1  0.02310000  0.26440000  0.66730000  1.0
  O  O1071  1  0.03010000  0.25890000  0.58380000  1.0
  O  O1072  1  0.72690000  0.26440000  0.08270000  1.0
  O  O1073  1  0.71990000  0.25890000  0.16620000  1.0
  O  O1074  1  0.72690000  0.76440000  0.58270000  1.0
  O  O1075  1  0.71990000  0.75890000  0.66620000  1.0
  O  O1076  1  0.22690000  0.26440000  0.58270000  1.0
  O  O1077  1  0.21990000  0.25890000  0.66620000  1.0
  O  O1078  1  0.22690000  0.76440000  0.08270000  1.0
  O  O1079  1  0.21990000  0.75890000  0.16620000  1.0
  O  O1080  1  0.22690000  0.48560000  0.16730000  1.0
  O  O1081  1  0.21990000  0.49110000  0.08380000  1.0
  O  O1082  1  0.22690000  0.98560000  0.66730000  1.0
  O  O1083  1  0.21990000  0.99110000  0.58380000  1.0
  O  O1084  1  0.72690000  0.48560000  0.66730000  1.0
  O  O1085  1  0.71990000  0.49110000  0.58380000  1.0
  O  O1086  1  0.72690000  0.98560000  0.16730000  1.0
  O  O1087  1  0.71990000  0.99110000  0.08380000  1.0
  O  O1088  1  0.58270000  0.02310000  0.98560000  1.0
  O  O1089  1  0.66620000  0.03010000  0.99110000  1.0
  O  O1090  1  0.58270000  0.52310000  0.48560000  1.0
  O  O1091  1  0.66620000  0.53010000  0.49110000  1.0
  O  O1092  1  0.08270000  0.02310000  0.48560000  1.0
  O  O1093  1  0.16620000  0.03010000  0.49110000  1.0
  O  O1094  1  0.08270000  0.52310000  0.98560000  1.0
  O  O1095  1  0.16620000  0.53010000  0.99110000  1.0
  O  O1096  1  0.66730000  0.52310000  0.76440000  1.0
  O  O1097  1  0.58380000  0.53010000  0.75890000  1.0
  O  O1098  1  0.66730000  0.02310000  0.26440000  1.0
  O  O1099  1  0.58380000  0.03010000  0.25890000  1.0
  O  O1100  1  0.16730000  0.52310000  0.26440000  1.0
  O  O1101  1  0.08380000  0.53010000  0.25890000  1.0
  O  O1102  1  0.16730000  0.02310000  0.76440000  1.0
  O  O1103  1  0.08380000  0.03010000  0.75890000  1.0
  O  O1104  1  0.08270000  0.72690000  0.26440000  1.0
  O  O1105  1  0.16620000  0.71990000  0.25890000  1.0
  O  O1106  1  0.08270000  0.22690000  0.76440000  1.0
  O  O1107  1  0.16620000  0.21990000  0.75890000  1.0
  O  O1108  1  0.58270000  0.72690000  0.76440000  1.0
  O  O1109  1  0.66620000  0.71990000  0.75890000  1.0
  O  O1110  1  0.58270000  0.22690000  0.26440000  1.0
  O  O1111  1  0.66620000  0.21990000  0.25890000  1.0
  O  O1112  1  0.16730000  0.22690000  0.48560000  1.0
  O  O1113  1  0.08380000  0.21990000  0.49110000  1.0
  O  O1114  1  0.16730000  0.72690000  0.98560000  1.0
  O  O1115  1  0.08380000  0.71990000  0.99110000  1.0
  O  O1116  1  0.66730000  0.22690000  0.98560000  1.0
  O  O1117  1  0.58380000  0.21990000  0.99110000  1.0
  O  O1118  1  0.66730000  0.72690000  0.48560000  1.0
  O  O1119  1  0.58380000  0.71990000  0.49110000  1.0
  O  O1120  1  0.83270000  0.73560000  0.97690000  1.0
  O  O1121  1  0.91620000  0.74110000  0.96990000  1.0
  O  O1122  1  0.83270000  0.23560000  0.47690000  1.0
  O  O1123  1  0.91620000  0.24110000  0.46990000  1.0
  O  O1124  1  0.33270000  0.73560000  0.47690000  1.0
  O  O1125  1  0.41620000  0.74110000  0.46990000  1.0
  O  O1126  1  0.33270000  0.23560000  0.97690000  1.0
  O  O1127  1  0.41620000  0.24110000  0.96990000  1.0
  O  O1128  1  0.91730000  0.51440000  0.47690000  1.0
  O  O1129  1  0.83380000  0.50890000  0.46990000  1.0
  O  O1130  1  0.91730000  0.01440000  0.97690000  1.0
  O  O1131  1  0.83380000  0.00890000  0.96990000  1.0
  O  O1132  1  0.41730000  0.51440000  0.97690000  1.0
  O  O1133  1  0.33380000  0.50890000  0.96990000  1.0
  O  O1134  1  0.41730000  0.01440000  0.47690000  1.0
  O  O1135  1  0.33380000  0.00890000  0.46990000  1.0
  O  O1136  1  0.33270000  0.01440000  0.27310000  1.0
  O  O1137  1  0.41620000  0.00890000  0.28010000  1.0
  O  O1138  1  0.33270000  0.51440000  0.77310000  1.0
  O  O1139  1  0.41620000  0.50890000  0.78010000  1.0
  O  O1140  1  0.83270000  0.01440000  0.77310000  1.0
  O  O1141  1  0.91620000  0.00890000  0.78010000  1.0
  O  O1142  1  0.83270000  0.51440000  0.27310000  1.0
  O  O1143  1  0.91620000  0.50890000  0.28010000  1.0
  O  O1144  1  0.41730000  0.23560000  0.77310000  1.0
  O  O1145  1  0.33380000  0.24110000  0.78010000  1.0
  O  O1146  1  0.41730000  0.73560000  0.27310000  1.0
  O  O1147  1  0.33380000  0.74110000  0.28010000  1.0
  O  O1148  1  0.91730000  0.23560000  0.27310000  1.0
  O  O1149  1  0.83380000  0.24110000  0.28010000  1.0
  O  O1150  1  0.91730000  0.73560000  0.77310000  1.0
  O  O1151  1  0.83380000  0.74110000  0.78010000  1.0
  O  O1152  1  0.23560000  0.77310000  0.41730000  1.0
  O  O1153  1  0.24110000  0.78010000  0.33380000  1.0
  O  O1154  1  0.23560000  0.27310000  0.91730000  1.0
  O  O1155  1  0.24110000  0.28010000  0.83380000  1.0
  O  O1156  1  0.73560000  0.77310000  0.91730000  1.0
  O  O1157  1  0.74110000  0.78010000  0.83380000  1.0
  O  O1158  1  0.73560000  0.27310000  0.41730000  1.0
  O  O1159  1  0.74110000  0.28010000  0.33380000  1.0
  O  O1160  1  0.01440000  0.27310000  0.33270000  1.0
  O  O1161  1  0.00890000  0.28010000  0.41620000  1.0
  O  O1162  1  0.01440000  0.77310000  0.83270000  1.0
  O  O1163  1  0.00890000  0.78010000  0.91620000  1.0
  O  O1164  1  0.51440000  0.27310000  0.83270000  1.0
  O  O1165  1  0.50890000  0.28010000  0.91620000  1.0
  O  O1166  1  0.51440000  0.77310000  0.33270000  1.0
  O  O1167  1  0.50890000  0.78010000  0.41620000  1.0
  O  O1168  1  0.51440000  0.47690000  0.91730000  1.0
  O  O1169  1  0.50890000  0.46990000  0.83380000  1.0
  O  O1170  1  0.51440000  0.97690000  0.41730000  1.0
  O  O1171  1  0.50890000  0.96990000  0.33380000  1.0
  O  O1172  1  0.01440000  0.47690000  0.41730000  1.0
  O  O1173  1  0.00890000  0.46990000  0.33380000  1.0
  O  O1174  1  0.01440000  0.97690000  0.91730000  1.0
  O  O1175  1  0.00890000  0.96990000  0.83380000  1.0
  O  O1176  1  0.73560000  0.97690000  0.83270000  1.0
  O  O1177  1  0.74110000  0.96990000  0.91620000  1.0
  O  O1178  1  0.73560000  0.47690000  0.33270000  1.0
  O  O1179  1  0.74110000  0.46990000  0.41620000  1.0
  O  O1180  1  0.23560000  0.97690000  0.33270000  1.0
  O  O1181  1  0.24110000  0.96990000  0.41620000  1.0
  O  O1182  1  0.23560000  0.47690000  0.83270000  1.0
  O  O1183  1  0.24110000  0.46990000  0.91620000  1.0
  O  O1184  1  0.27310000  0.33270000  0.01440000  1.0
  O  O1185  1  0.28010000  0.41620000  0.00890000  1.0
  O  O1186  1  0.27310000  0.83270000  0.51440000  1.0
  O  O1187  1  0.28010000  0.91620000  0.50890000  1.0
  O  O1188  1  0.77310000  0.33270000  0.51440000  1.0
  O  O1189  1  0.78010000  0.41620000  0.50890000  1.0
  O  O1190  1  0.77310000  0.83270000  0.01440000  1.0
  O  O1191  1  0.78010000  0.91620000  0.00890000  1.0
  O  O1192  1  0.77310000  0.41730000  0.23560000  1.0
  O  O1193  1  0.78010000  0.33380000  0.24110000  1.0
  O  O1194  1  0.77310000  0.91730000  0.73560000  1.0
  O  O1195  1  0.78010000  0.83380000  0.74110000  1.0
  O  O1196  1  0.27310000  0.41730000  0.73560000  1.0
  O  O1197  1  0.28010000  0.33380000  0.74110000  1.0
  O  O1198  1  0.27310000  0.91730000  0.23560000  1.0
  O  O1199  1  0.28010000  0.83380000  0.24110000  1.0
  O  O1200  1  0.97690000  0.83270000  0.73560000  1.0
  O  O1201  1  0.96990000  0.91620000  0.74110000  1.0
  O  O1202  1  0.97690000  0.33270000  0.23560000  1.0
  O  O1203  1  0.96990000  0.41620000  0.24110000  1.0
  O  O1204  1  0.47690000  0.83270000  0.23560000  1.0
  O  O1205  1  0.46990000  0.91620000  0.24110000  1.0
  O  O1206  1  0.47690000  0.33270000  0.73560000  1.0
  O  O1207  1  0.46990000  0.41620000  0.74110000  1.0
  O  O1208  1  0.47690000  0.91730000  0.51440000  1.0
  O  O1209  1  0.46990000  0.83380000  0.50890000  1.0
  O  O1210  1  0.47690000  0.41730000  0.01440000  1.0
  O  O1211  1  0.46990000  0.33380000  0.00890000  1.0
  O  O1212  1  0.97690000  0.91730000  0.01440000  1.0
  O  O1213  1  0.96990000  0.83380000  0.00890000  1.0
  O  O1214  1  0.97690000  0.41730000  0.51440000  1.0
  O  O1215  1  0.96990000  0.33380000  0.50890000  1.0
  O  O1216  1  0.00000000  0.31540000  0.06540000  1.0
  O  O1217  1  0.50000000  0.31540000  0.56540000  1.0
  O  O1218  1  0.25000000  0.43460000  0.56540000  1.0
  O  O1219  1  0.75000000  0.43460000  0.06540000  1.0
  O  O1220  1  0.75000000  0.81540000  0.18460000  1.0
  O  O1221  1  0.75000000  0.31540000  0.68460000  1.0
  O  O1222  1  0.25000000  0.81540000  0.68460000  1.0
  O  O1223  1  0.50000000  0.93460000  0.68460000  1.0
  O  O1224  1  0.00000000  0.93460000  0.18460000  1.0
  O  O1225  1  0.06540000  0.00000000  0.31540000  1.0
  O  O1226  1  0.06540000  0.50000000  0.81540000  1.0
  O  O1227  1  0.56540000  0.25000000  0.43460000  1.0
  O  O1228  1  0.56540000  0.75000000  0.93460000  1.0
  O  O1229  1  0.18460000  0.75000000  0.81540000  1.0
  O  O1230  1  0.18460000  0.25000000  0.31540000  1.0
  O  O1231  1  0.68460000  0.75000000  0.31540000  1.0
  O  O1232  1  0.68460000  0.50000000  0.93460000  1.0
  O  O1233  1  0.68460000  0.00000000  0.43460000  1.0
  O  O1234  1  0.18460000  0.00000000  0.93460000  1.0
  O  O1235  1  0.31540000  0.06540000  0.00000000  1.0
  O  O1236  1  0.31540000  0.56540000  0.50000000  1.0
  O  O1237  1  0.43460000  0.56540000  0.25000000  1.0
  O  O1238  1  0.43460000  0.06540000  0.75000000  1.0
  O  O1239  1  0.81540000  0.18460000  0.75000000  1.0
  O  O1240  1  0.81540000  0.68460000  0.25000000  1.0
  O  O1241  1  0.31540000  0.68460000  0.75000000  1.0
  O  O1242  1  0.93460000  0.68460000  0.50000000  1.0
  O  O1243  1  0.93460000  0.18460000  0.00000000  1.0
  O  O1244  1  0.06540000  0.25000000  0.93460000  1.0
  O  O1245  1  0.06540000  0.75000000  0.43460000  1.0
  O  O1246  1  0.18460000  0.50000000  0.43460000  1.0
  O  O1247  1  0.56540000  0.00000000  0.81540000  1.0
  O  O1248  1  0.56540000  0.50000000  0.31540000  1.0
  O  O1249  1  0.68460000  0.25000000  0.81540000  1.0
  O  O1250  1  0.25000000  0.31540000  0.18460000  1.0
  O  O1251  1  0.00000000  0.81540000  0.56540000  1.0
  O  O1252  1  0.50000000  0.81540000  0.06540000  1.0
  O  O1253  1  0.50000000  0.43460000  0.18460000  1.0
  O  O1254  1  0.00000000  0.43460000  0.68460000  1.0
  O  O1255  1  0.25000000  0.93460000  0.06540000  1.0
  O  O1256  1  0.75000000  0.93460000  0.56540000  1.0
  O  O1257  1  0.81540000  0.56540000  0.00000000  1.0
  O  O1258  1  0.81540000  0.06540000  0.50000000  1.0
  O  O1259  1  0.31540000  0.18460000  0.25000000  1.0
  O  O1260  1  0.93460000  0.06540000  0.25000000  1.0
  O  O1261  1  0.93460000  0.56540000  0.75000000  1.0
  O  O1262  1  0.43460000  0.18460000  0.50000000  1.0
  O  O1263  1  0.43460000  0.68460000  0.00000000  1.0
  O  O1264  1  0.00000000  0.68460000  0.93460000  1.0
  O  O1265  1  0.50000000  0.68460000  0.43460000  1.0
  O  O1266  1  0.75000000  0.56540000  0.43460000  1.0
  O  O1267  1  0.75000000  0.06540000  0.93460000  1.0
  O  O1268  1  0.25000000  0.56540000  0.93460000  1.0
  O  O1269  1  0.25000000  0.18460000  0.81540000  1.0
  O  O1270  1  0.75000000  0.18460000  0.31540000  1.0
  O  O1271  1  0.50000000  0.06540000  0.31540000  1.0
  O  O1272  1  0.00000000  0.06540000  0.81540000  1.0
  O  O1273  1  0.00000000  0.56540000  0.31540000  1.0
  O  O1274  1  0.93460000  0.00000000  0.68460000  1.0
  O  O1275  1  0.93460000  0.50000000  0.18460000  1.0
  O  O1276  1  0.43460000  0.75000000  0.56540000  1.0
  O  O1277  1  0.43460000  0.25000000  0.06540000  1.0
  O  O1278  1  0.93460000  0.75000000  0.06540000  1.0
  O  O1279  1  0.81540000  0.25000000  0.18460000  1.0
  O  O1280  1  0.81540000  0.75000000  0.68460000  1.0
  O  O1281  1  0.31540000  0.50000000  0.06540000  1.0
  O  O1282  1  0.31540000  0.00000000  0.56540000  1.0
  O  O1283  1  0.68460000  0.93460000  0.00000000  1.0
  O  O1284  1  0.68460000  0.43460000  0.50000000  1.0
  O  O1285  1  0.56540000  0.43460000  0.75000000  1.0
  O  O1286  1  0.56540000  0.93460000  0.25000000  1.0
  O  O1287  1  0.06540000  0.93460000  0.75000000  1.0
  O  O1288  1  0.18460000  0.81540000  0.25000000  1.0
  O  O1289  1  0.18460000  0.31540000  0.75000000  1.0
  O  O1290  1  0.06540000  0.31540000  0.50000000  1.0
  O  O1291  1  0.06540000  0.81540000  0.00000000  1.0
  O  O1292  1  0.56540000  0.31540000  0.00000000  1.0
  O  O1293  1  0.93460000  0.25000000  0.56540000  1.0
  O  O1294  1  0.81540000  0.50000000  0.56540000  1.0
  O  O1295  1  0.81540000  0.00000000  0.06540000  1.0
  O  O1296  1  0.43460000  0.00000000  0.18460000  1.0
  O  O1297  1  0.43460000  0.50000000  0.68460000  1.0
  O  O1298  1  0.31540000  0.25000000  0.68460000  1.0
  O  O1299  1  0.31540000  0.75000000  0.18460000  1.0
  O  O1300  1  0.25000000  0.68460000  0.31540000  1.0
  O  O1301  1  0.75000000  0.68460000  0.81540000  1.0
  O  O1302  1  0.00000000  0.18460000  0.43460000  1.0
  O  O1303  1  0.50000000  0.18460000  0.93460000  1.0
  O  O1304  1  0.50000000  0.56540000  0.81540000  1.0
  O  O1305  1  0.25000000  0.06540000  0.43460000  1.0
  O  O1306  1  0.18460000  0.43460000  0.00000000  1.0
  O  O1307  1  0.18460000  0.93460000  0.50000000  1.0
  O  O1308  1  0.68460000  0.31540000  0.25000000  1.0
  O  O1309  1  0.68460000  0.81540000  0.75000000  1.0
  O  O1310  1  0.06540000  0.43460000  0.25000000  1.0
  O  O1311  1  0.56540000  0.81540000  0.50000000  1.0
