# generated using pymatgen
data_La2CoH24C48(NO2)8
_symmetry_space_group_name_H-M   'P 1'
_cell_length_a   11.32540000
_cell_length_b   33.04260000
_cell_length_c   33.04260000
_cell_angle_alpha   88.31700000
_cell_angle_beta   80.13220000
_cell_angle_gamma   80.13220000
_symmetry_Int_Tables_number   1
_chemical_formula_structural   La2CoH24C48(NO2)8
_chemical_formula_sum   'La16 Co8 H192 C384 N64 O128'
_cell_volume   12002.06267536
_cell_formula_units_Z   8
loop_
 _symmetry_equiv_pos_site_id
 _symmetry_equiv_pos_as_xyz
  1  'x, y, z'
loop_
 _atom_site_type_symbol
 _atom_site_label
 _atom_site_symmetry_multiplicity
 _atom_site_fract_x
 _atom_site_fract_y
 _atom_site_fract_z
 _atom_site_occupancy
  La  La0  1  0.45958000  0.32900000  0.52940000  1.0
  La  La1  1  0.96598000  0.32773000  0.52619000  1.0
  La  La2  1  0.81798000  0.17100000  0.97060000  1.0
  La  La3  1  0.31990000  0.17227000  0.97381000  1.0
  La  La4  1  0.98898000  0.47060000  0.82900000  1.0
  La  La5  1  0.49217000  0.47381000  0.82773000  1.0
  La  La6  1  0.78858000  0.02940000  0.67100000  1.0
  La  La7  1  0.29371000  0.02619000  0.67227000  1.0
  La  La8  1  0.54042000  0.67100000  0.47060000  1.0
  La  La9  1  0.03402000  0.67227000  0.47381000  1.0
  La  La10  1  0.18202000  0.82900000  0.02940000  1.0
  La  La11  1  0.68010000  0.82773000  0.02619000  1.0
  La  La12  1  0.01102000  0.52940000  0.17100000  1.0
  La  La13  1  0.50783000  0.52619000  0.17227000  1.0
  La  La14  1  0.21142000  0.97060000  0.32900000  1.0
  La  La15  1  0.70629000  0.97381000  0.32773000  1.0
  Co  Co16  1  0.95453000  0.46281000  0.37025000  1.0
  Co  Co17  1  0.28759000  0.03719000  0.12975000  1.0
  Co  Co18  1  0.32478000  0.62975000  0.96281000  1.0
  Co  Co19  1  0.41734000  0.87025000  0.53719000  1.0
  Co  Co20  1  0.04547000  0.53719000  0.62975000  1.0
  Co  Co21  1  0.71241000  0.96281000  0.87025000  1.0
  Co  Co22  1  0.67522000  0.37025000  0.03719000  1.0
  Co  Co23  1  0.58266000  0.12975000  0.46281000  1.0
  H  H24  1  0.74030000  0.18880000  0.41280000  1.0
  H  H25  1  0.70720000  0.24380000  0.37120000  1.0
  H  H26  1  0.50960000  0.28020000  0.37400000  1.0
  H  H27  1  0.12130000  0.20890000  0.54270000  1.0
  H  H28  1  0.15140000  0.13770000  0.53790000  1.0
  H  H29  1  0.32320000  0.10430000  0.49850000  1.0
  H  H30  1  0.08370000  0.47470000  0.70230000  1.0
  H  H31  1  0.04750000  0.40770000  0.71430000  1.0
  H  H32  1  0.03230000  0.36850000  0.65890000  1.0
  H  H33  1  0.25760000  0.46270000  0.47430000  1.0
  H  H34  1  0.15110000  0.52840000  0.47320000  1.0
  H  H35  1  0.04420000  0.55850000  0.53390000  1.0
  H  H36  1  0.67260000  0.50210000  0.38410000  1.0
  H  H37  1  0.50950000  0.49490000  0.43430000  1.0
  H  H38  1  0.52980000  0.43930000  0.47890000  1.0
  H  H39  1  0.00110000  0.28970000  0.37210000  1.0
  H  H40  1  0.17450000  0.31850000  0.35350000  1.0
  H  H41  1  0.16190000  0.38800000  0.36040000  1.0
  H  H42  1  0.87320000  0.18690000  0.54430000  1.0
  H  H43  1  0.80550000  0.12970000  0.57530000  1.0
  H  H44  1  0.68600000  0.13670000  0.63710000  1.0
  H  H45  1  0.60210000  0.36430000  0.65590000  1.0
  H  H46  1  0.68230000  0.35870000  0.71790000  1.0
  H  H47  1  0.74270000  0.29390000  0.74090000  1.0
  H  H48  1  0.84190000  0.31120000  0.08720000  1.0
  H  H49  1  0.82220000  0.25620000  0.12880000  1.0
  H  H50  1  0.66380000  0.21980000  0.12600000  1.0
  H  H51  1  0.37290000  0.29110000  0.95730000  1.0
  H  H52  1  0.32700000  0.36230000  0.96210000  1.0
  H  H53  1  0.42600000  0.39570000  0.00150000  1.0
  H  H54  1  0.76070000  0.02530000  0.79770000  1.0
  H  H55  1  0.66950000  0.09230000  0.78570000  1.0
  H  H56  1  0.55970000  0.13150000  0.84110000  1.0
  H  H57  1  0.69460000  0.03730000  0.02570000  1.0
  H  H58  1  0.65270000  0.97160000  0.02680000  1.0
  H  H59  1  0.63660000  0.94150000  0.96610000  1.0
  H  H60  1  0.05880000  0.99790000  0.11590000  1.0
  H  H61  1  0.93870000  0.00510000  0.06570000  1.0
  H  H62  1  0.94800000  0.06070000  0.02110000  1.0
  H  H63  1  0.16290000  0.21030000  0.12790000  1.0
  H  H64  1  0.34650000  0.18150000  0.14650000  1.0
  H  H65  1  0.41030000  0.11200000  0.13960000  1.0
  H  H66  1  0.10440000  0.31310000  0.95570000  1.0
  H  H67  1  0.01050000  0.37030000  0.92470000  1.0
  H  H68  1  0.95980000  0.36330000  0.86290000  1.0
  H  H69  1  0.12230000  0.13570000  0.84410000  1.0
  H  H70  1  0.25890000  0.14130000  0.78210000  1.0
  H  H71  1  0.27750000  0.20610000  0.75910000  1.0
  H  H72  1  0.15310000  0.58720000  0.68880000  1.0
  H  H73  1  0.07840000  0.62880000  0.74380000  1.0
  H  H74  1  0.88360000  0.62600000  0.78020000  1.0
  H  H75  1  0.66400000  0.45730000  0.70890000  1.0
  H  H76  1  0.68930000  0.46210000  0.63770000  1.0
  H  H77  1  0.82170000  0.50150000  0.60430000  1.0
  H  H78  1  0.78600000  0.29770000  0.97470000  1.0
  H  H79  1  0.76180000  0.28570000  0.90770000  1.0
  H  H80  1  0.69120000  0.34110000  0.86850000  1.0
  H  H81  1  0.73190000  0.52570000  0.96270000  1.0
  H  H82  1  0.62430000  0.52680000  0.02840000  1.0
  H  H83  1  0.57810000  0.46610000  0.05850000  1.0
  H  H84  1  0.05670000  0.61590000  0.00210000  1.0
  H  H85  1  0.94380000  0.56570000  0.99490000  1.0
  H  H86  1  0.00870000  0.52110000  0.93930000  1.0
  H  H87  1  0.37320000  0.62790000  0.78970000  1.0
  H  H88  1  0.52800000  0.64650000  0.81850000  1.0
  H  H89  1  0.52230000  0.63960000  0.88800000  1.0
  H  H90  1  0.41750000  0.45570000  0.68690000  1.0
  H  H91  1  0.38080000  0.42470000  0.62970000  1.0
  H  H92  1  0.32310000  0.36290000  0.63670000  1.0
  H  H93  1  0.25800000  0.34410000  0.86430000  1.0
  H  H94  1  0.40020000  0.28210000  0.85870000  1.0
  H  H95  1  0.48360000  0.25910000  0.79390000  1.0
  H  H96  1  0.92910000  0.91280000  0.81120000  1.0
  H  H97  1  0.95100000  0.87120000  0.75620000  1.0
  H  H98  1  0.78980000  0.87400000  0.71980000  1.0
  H  H99  1  0.33020000  0.04270000  0.79110000  1.0
  H  H100  1  0.28910000  0.03790000  0.86230000  1.0
  H  H101  1  0.42750000  0.99850000  0.89570000  1.0
  H  H102  1  0.55840000  0.20230000  0.52530000  1.0
  H  H103  1  0.45520000  0.21430000  0.59230000  1.0
  H  H104  1  0.40080000  0.15890000  0.63150000  1.0
  H  H105  1  0.72030000  0.97430000  0.53730000  1.0
  H  H106  1  0.67950000  0.97320000  0.47160000  1.0
  H  H107  1  0.60270000  0.03390000  0.44150000  1.0
  H  H108  1  0.17470000  0.88410000  0.49790000  1.0
  H  H109  1  0.00440000  0.93430000  0.50510000  1.0
  H  H110  1  0.96910000  0.97890000  0.56070000  1.0
  H  H111  1  0.29080000  0.87210000  0.71030000  1.0
  H  H112  1  0.49300000  0.85350000  0.68150000  1.0
  H  H113  1  0.54990000  0.86040000  0.61200000  1.0
  H  H114  1  0.06010000  0.04430000  0.81310000  1.0
  H  H115  1  0.93520000  0.07530000  0.87030000  1.0
  H  H116  1  0.82270000  0.13710000  0.86330000  1.0
  H  H117  1  0.96640000  0.15590000  0.63570000  1.0
  H  H118  1  0.04100000  0.21790000  0.64130000  1.0
  H  H119  1  0.03660000  0.24090000  0.70610000  1.0
  H  H120  1  0.25970000  0.81120000  0.58720000  1.0
  H  H121  1  0.29280000  0.75620000  0.62880000  1.0
  H  H122  1  0.49040000  0.71980000  0.62600000  1.0
  H  H123  1  0.87870000  0.79110000  0.45730000  1.0
  H  H124  1  0.84860000  0.86230000  0.46210000  1.0
  H  H125  1  0.67680000  0.89570000  0.50150000  1.0
  H  H126  1  0.91630000  0.52530000  0.29770000  1.0
  H  H127  1  0.95250000  0.59230000  0.28570000  1.0
  H  H128  1  0.96770000  0.63150000  0.34110000  1.0
  H  H129  1  0.74240000  0.53730000  0.52570000  1.0
  H  H130  1  0.84890000  0.47160000  0.52680000  1.0
  H  H131  1  0.95580000  0.44150000  0.46610000  1.0
  H  H132  1  0.32740000  0.49790000  0.61590000  1.0
  H  H133  1  0.49050000  0.50510000  0.56570000  1.0
  H  H134  1  0.47020000  0.56070000  0.52110000  1.0
  H  H135  1  0.99890000  0.71030000  0.62790000  1.0
  H  H136  1  0.82550000  0.68150000  0.64650000  1.0
  H  H137  1  0.83810000  0.61200000  0.63960000  1.0
  H  H138  1  0.12680000  0.81310000  0.45570000  1.0
  H  H139  1  0.19450000  0.87030000  0.42470000  1.0
  H  H140  1  0.31400000  0.86330000  0.36290000  1.0
  H  H141  1  0.39790000  0.63570000  0.34410000  1.0
  H  H142  1  0.31770000  0.64130000  0.28210000  1.0
  H  H143  1  0.25730000  0.70610000  0.25910000  1.0
  H  H144  1  0.15810000  0.68880000  0.91280000  1.0
  H  H145  1  0.17780000  0.74380000  0.87120000  1.0
  H  H146  1  0.33620000  0.78020000  0.87400000  1.0
  H  H147  1  0.62710000  0.70890000  0.04270000  1.0
  H  H148  1  0.67300000  0.63770000  0.03790000  1.0
  H  H149  1  0.57400000  0.60430000  0.99850000  1.0
  H  H150  1  0.23930000  0.97470000  0.20230000  1.0
  H  H151  1  0.33050000  0.90770000  0.21430000  1.0
  H  H152  1  0.44030000  0.86850000  0.15890000  1.0
  H  H153  1  0.30540000  0.96270000  0.97430000  1.0
  H  H154  1  0.34730000  0.02840000  0.97320000  1.0
  H  H155  1  0.36340000  0.05850000  0.03390000  1.0
  H  H156  1  0.94120000  0.00210000  0.88410000  1.0
  H  H157  1  0.06130000  0.99490000  0.93430000  1.0
  H  H158  1  0.05200000  0.93930000  0.97890000  1.0
  H  H159  1  0.83710000  0.78970000  0.87210000  1.0
  H  H160  1  0.65350000  0.81850000  0.85350000  1.0
  H  H161  1  0.58970000  0.88800000  0.86040000  1.0
  H  H162  1  0.89560000  0.68690000  0.04430000  1.0
  H  H163  1  0.98950000  0.62970000  0.07530000  1.0
  H  H164  1  0.04020000  0.63670000  0.13710000  1.0
  H  H165  1  0.87770000  0.86430000  0.15590000  1.0
  H  H166  1  0.74110000  0.85870000  0.21790000  1.0
  H  H167  1  0.72250000  0.79390000  0.24090000  1.0
  H  H168  1  0.84690000  0.41280000  0.31120000  1.0
  H  H169  1  0.92160000  0.37120000  0.25620000  1.0
  H  H170  1  0.11640000  0.37400000  0.21980000  1.0
  H  H171  1  0.33600000  0.54270000  0.29110000  1.0
  H  H172  1  0.31070000  0.53790000  0.36230000  1.0
  H  H173  1  0.17830000  0.49850000  0.39570000  1.0
  H  H174  1  0.21400000  0.70230000  0.02530000  1.0
  H  H175  1  0.23820000  0.71430000  0.09230000  1.0
  H  H176  1  0.30880000  0.65890000  0.13150000  1.0
  H  H177  1  0.26810000  0.47430000  0.03730000  1.0
  H  H178  1  0.37570000  0.47320000  0.97160000  1.0
  H  H179  1  0.42190000  0.53390000  0.94150000  1.0
  H  H180  1  0.94330000  0.38410000  0.99790000  1.0
  H  H181  1  0.05620000  0.43430000  0.00510000  1.0
  H  H182  1  0.99130000  0.47890000  0.06070000  1.0
  H  H183  1  0.62680000  0.37210000  0.21030000  1.0
  H  H184  1  0.47200000  0.35350000  0.18150000  1.0
  H  H185  1  0.47770000  0.36040000  0.11200000  1.0
  H  H186  1  0.58250000  0.54430000  0.31310000  1.0
  H  H187  1  0.61920000  0.57530000  0.37030000  1.0
  H  H188  1  0.67690000  0.63710000  0.36330000  1.0
  H  H189  1  0.74200000  0.65590000  0.13570000  1.0
  H  H190  1  0.59980000  0.71790000  0.14130000  1.0
  H  H191  1  0.51640000  0.74090000  0.20610000  1.0
  H  H192  1  0.07090000  0.08720000  0.18880000  1.0
  H  H193  1  0.04900000  0.12880000  0.24380000  1.0
  H  H194  1  0.21020000  0.12600000  0.28020000  1.0
  H  H195  1  0.66980000  0.95730000  0.20890000  1.0
  H  H196  1  0.71090000  0.96210000  0.13770000  1.0
  H  H197  1  0.57250000  0.00150000  0.10430000  1.0
  H  H198  1  0.44160000  0.79770000  0.47470000  1.0
  H  H199  1  0.54480000  0.78570000  0.40770000  1.0
  H  H200  1  0.59920000  0.84110000  0.36850000  1.0
  H  H201  1  0.27970000  0.02570000  0.46270000  1.0
  H  H202  1  0.32050000  0.02680000  0.52840000  1.0
  H  H203  1  0.39730000  0.96610000  0.55850000  1.0
  H  H204  1  0.82530000  0.11590000  0.50210000  1.0
  H  H205  1  0.99560000  0.06570000  0.49490000  1.0
  H  H206  1  0.03090000  0.02110000  0.43930000  1.0
  H  H207  1  0.70920000  0.12790000  0.28970000  1.0
  H  H208  1  0.50700000  0.14650000  0.31850000  1.0
  H  H209  1  0.45010000  0.13960000  0.38800000  1.0
  H  H210  1  0.93990000  0.95570000  0.18690000  1.0
  H  H211  1  0.06480000  0.92470000  0.12970000  1.0
  H  H212  1  0.17730000  0.86290000  0.13670000  1.0
  H  H213  1  0.03360000  0.84410000  0.36430000  1.0
  H  H214  1  0.95900000  0.78210000  0.35870000  1.0
  H  H215  1  0.96340000  0.75910000  0.29390000  1.0
  C  C216  1  0.66172000  0.20329000  0.41447000  1.0
  C  C217  1  0.64281000  0.23603000  0.38935000  1.0
  C  C218  1  0.52490000  0.25792000  0.39128000  1.0
  C  C219  1  0.43034000  0.24588000  0.41944000  1.0
  C  C220  1  0.30333000  0.27056000  0.42098000  1.0
  C  C221  1  0.45889000  0.21196000  0.44466000  1.0
  C  C222  1  0.36801000  0.19387000  0.47491000  1.0
  C  C223  1  0.27245000  0.21635000  0.50235000  1.0
  C  C224  1  0.26324000  0.26128000  0.51064000  1.0
  C  C225  1  0.18899000  0.19486000  0.52556000  1.0
  C  C226  1  0.20742000  0.15248000  0.52308000  1.0
  C  C227  1  0.30859000  0.13286000  0.49876000  1.0
  C  C228  1  0.08104000  0.45825000  0.68027000  1.0
  C  C229  1  0.05760000  0.41826000  0.68774000  1.0
  C  C230  1  0.04992000  0.39488000  0.65468000  1.0
  C  C231  1  0.06844000  0.41069000  0.61483000  1.0
  C  C232  1  0.03978000  0.38648000  0.58136000  1.0
  C  C233  1  0.09827000  0.44967000  0.60999000  1.0
  C  C234  1  0.12490000  0.46980000  0.56900000  1.0
  C  C235  1  0.20156000  0.45203000  0.53465000  1.0
  C  C236  1  0.28224000  0.41006000  0.53606000  1.0
  C  C237  1  0.20993000  0.47449000  0.49825000  1.0
  C  C238  1  0.14855000  0.51367000  0.49763000  1.0
  C  C239  1  0.08199000  0.53118000  0.53404000  1.0
  C  C240  1  0.67650000  0.47841000  0.40019000  1.0
  C  C241  1  0.57980000  0.47517000  0.43103000  1.0
  C  C242  1  0.59126000  0.44162000  0.45686000  1.0
  C  C243  1  0.69465000  0.41113000  0.44997000  1.0
  C  C244  1  0.78105000  0.41492000  0.41538000  1.0
  C  C245  1  0.71115000  0.37819000  0.48171000  1.0
  C  C246  1  0.89052000  0.38369000  0.39947000  1.0
  C  C247  1  0.89050000  0.34183000  0.39517000  1.0
  C  C248  1  0.78037000  0.32167000  0.40919000  1.0
  C  C249  1  0.99869000  0.31755000  0.37647000  1.0
  C  C250  1  0.10122000  0.33467000  0.36449000  1.0
  C  C251  1  0.09307000  0.37620000  0.36926000  1.0
  C  C252  1  0.85204000  0.26166000  0.57186000  1.0
  C  C253  1  0.79738000  0.22641000  0.59123000  1.0
  C  C254  1  0.82620000  0.18885000  0.57035000  1.0
  C  C255  1  0.78530000  0.15510000  0.58830000  1.0
  C  C256  1  0.71460000  0.15980000  0.62540000  1.0
  C  C257  1  0.72520000  0.22890000  0.62990000  1.0
  C  C258  1  0.69810000  0.26656000  0.65504000  1.0
  C  C259  1  0.64030000  0.30260000  0.64200000  1.0
  C  C260  1  0.58156000  0.30864000  0.60284000  1.0
  C  C261  1  0.63520000  0.33870000  0.66530000  1.0
  C  C262  1  0.68030000  0.33560000  0.70260000  1.0
  C  C263  1  0.72070000  0.29690000  0.71490000  1.0
  C  C264  1  0.77948000  0.29671000  0.08553000  1.0
  C  C265  1  0.76819000  0.26397000  0.11065000  1.0
  C  C266  1  0.67410000  0.24208000  0.10872000  1.0
  C  C267  1  0.59566000  0.25412000  0.08056000  1.0
  C  C268  1  0.49487000  0.22944000  0.07902000  1.0
  C  C269  1  0.61551000  0.28804000  0.05534000  1.0
  C  C270  1  0.53679000  0.30613000  0.02509000  1.0
  C  C271  1  0.49115000  0.28365000  0.99765000  1.0
  C  C272  1  0.53516000  0.23872000  0.98936000  1.0
  C  C273  1  0.40941000  0.30514000  0.97444000  1.0
  C  C274  1  0.38298000  0.34752000  0.97692000  1.0
  C  C275  1  0.44021000  0.36714000  0.00124000  1.0
  C  C276  1  0.71956000  0.04175000  0.81973000  1.0
  C  C277  1  0.66360000  0.08174000  0.81226000  1.0
  C  C278  1  0.59948000  0.10512000  0.84532000  1.0
  C  C279  1  0.59396000  0.08931000  0.88517000  1.0
  C  C280  1  0.50762000  0.11352000  0.91864000  1.0
  C  C281  1  0.65793000  0.05033000  0.89001000  1.0
  C  C282  1  0.66370000  0.03020000  0.93100000  1.0
  C  C283  1  0.68824000  0.04797000  0.96535000  1.0
  C  C284  1  0.72836000  0.08994000  0.96394000  1.0
  C  C285  1  0.68267000  0.02551000  0.00175000  1.0
  C  C286  1  0.65985000  0.98633000  0.00237000  1.0
  C  C287  1  0.64721000  0.96882000  0.96596000  1.0
  C  C288  1  0.05510000  0.02159000  0.09981000  1.0
  C  C289  1  0.98600000  0.02483000  0.06897000  1.0
  C  C290  1  0.98974000  0.05838000  0.04314000  1.0
  C  C291  1  0.05575000  0.08887000  0.05003000  1.0
  C  C292  1  0.11135000  0.08508000  0.08462000  1.0
  C  C293  1  0.07105000  0.12181000  0.01829000  1.0
  C  C294  1  0.17368000  0.11631000  0.10053000  1.0
  C  C295  1  0.12750000  0.15817000  0.10483000  1.0
  C  C296  1  0.01123000  0.17833000  0.09081000  1.0
  C  C297  1  0.19271000  0.18245000  0.12353000  1.0
  C  C298  1  0.30038000  0.16533000  0.13551000  1.0
  C  C299  1  0.33853000  0.12380000  0.13074000  1.0
  C  C300  1  0.18556000  0.23834000  0.92814000  1.0
  C  C301  1  0.11502000  0.27359000  0.90877000  1.0
  C  C302  1  0.08540000  0.31115000  0.92965000  1.0
  C  C303  1  0.02870000  0.34490000  0.91170000  1.0
  C  C304  1  0.99980000  0.34020000  0.87460000  1.0
  C  C305  1  0.08400000  0.27110000  0.87010000  1.0
  C  C306  1  0.11970000  0.23344000  0.84496000  1.0
  C  C307  1  0.08490000  0.19740000  0.85800000  1.0
  C  C308  1  0.99304000  0.19136000  0.89716000  1.0
  C  C309  1  0.13920000  0.16130000  0.83470000  1.0
  C  C310  1  0.21850000  0.16440000  0.79740000  1.0
  C  C311  1  0.23250000  0.20310000  0.78510000  1.0
  C  C312  1  0.07619000  0.58553000  0.70329000  1.0
  C  C313  1  0.03216000  0.61065000  0.73603000  1.0
  C  C314  1  0.91618000  0.60872000  0.75792000  1.0
  C  C315  1  0.84978000  0.58056000  0.74588000  1.0
  C  C316  1  0.72431000  0.57902000  0.77056000  1.0
  C  C317  1  0.90355000  0.55534000  0.71196000  1.0
  C  C318  1  0.84292000  0.52509000  0.69387000  1.0
  C  C319  1  0.77480000  0.49765000  0.71635000  1.0
  C  C320  1  0.77388000  0.48936000  0.76128000  1.0
  C  C321  1  0.71455000  0.47444000  0.69486000  1.0
  C  C322  1  0.73050000  0.47692000  0.65248000  1.0
  C  C323  1  0.80735000  0.50124000  0.63286000  1.0
  C  C324  1  0.76131000  0.31973000  0.95825000  1.0
  C  C325  1  0.74534000  0.31226000  0.91826000  1.0
  C  C326  1  0.70460000  0.34532000  0.89488000  1.0
  C  C327  1  0.68327000  0.38517000  0.91069000  1.0
  C  C328  1  0.62114000  0.41864000  0.88648000  1.0
  C  C329  1  0.70826000  0.39001000  0.94967000  1.0
  C  C330  1  0.69390000  0.43100000  0.96980000  1.0
  C  C331  1  0.73621000  0.46535000  0.95203000  1.0
  C  C332  1  0.81830000  0.46394000  0.91006000  1.0
  C  C333  1  0.70818000  0.50175000  0.97449000  1.0
  C  C334  1  0.64618000  0.50237000  0.01367000  1.0
  C  C335  1  0.61603000  0.46596000  0.03118000  1.0
  C  C336  1  0.07669000  0.59981000  0.97841000  1.0
  C  C337  1  0.01083000  0.56897000  0.97517000  1.0
  C  C338  1  0.04812000  0.54314000  0.94162000  1.0
  C  C339  1  0.14462000  0.55003000  0.91113000  1.0
  C  C340  1  0.19643000  0.58462000  0.91492000  1.0
  C  C341  1  0.19286000  0.51829000  0.87819000  1.0
  C  C342  1  0.28999000  0.60053000  0.88369000  1.0
  C  C343  1  0.28567000  0.60483000  0.84183000  1.0
  C  C344  1  0.18956000  0.59081000  0.82167000  1.0
  C  C345  1  0.37516000  0.62353000  0.81755000  1.0
  C  C346  1  0.46571000  0.63551000  0.83467000  1.0
  C  C347  1  0.46233000  0.63074000  0.87620000  1.0
  C  C348  1  0.42390000  0.42814000  0.76166000  1.0
  C  C349  1  0.38861000  0.40877000  0.72641000  1.0
  C  C350  1  0.39655000  0.42965000  0.68885000  1.0
  C  C351  1  0.37360000  0.41170000  0.65510000  1.0
  C  C352  1  0.34000000  0.37460000  0.65980000  1.0
  C  C353  1  0.35510000  0.37010000  0.72890000  1.0
  C  C354  1  0.35314000  0.34496000  0.76656000  1.0
  C  C355  1  0.28230000  0.35800000  0.80260000  1.0
  C  C356  1  0.18440000  0.39716000  0.80864000  1.0
  C  C357  1  0.30050000  0.33470000  0.83870000  1.0
  C  C358  1  0.38290000  0.29740000  0.83560000  1.0
  C  C359  1  0.43560000  0.28510000  0.79690000  1.0
  C  C360  1  0.86501000  0.91447000  0.79671000  1.0
  C  C361  1  0.87884000  0.88935000  0.76397000  1.0
  C  C362  1  0.78282000  0.89128000  0.74208000  1.0
  C  C363  1  0.67622000  0.91944000  0.75412000  1.0
  C  C364  1  0.57389000  0.92098000  0.72944000  1.0
  C  C365  1  0.67085000  0.94466000  0.78804000  1.0
  C  C366  1  0.56188000  0.97491000  0.80613000  1.0
  C  C367  1  0.48880000  0.00235000  0.78365000  1.0
  C  C368  1  0.52452000  0.01064000  0.73872000  1.0
  C  C369  1  0.38385000  0.02556000  0.80514000  1.0
  C  C370  1  0.35990000  0.02308000  0.84752000  1.0
  C  C371  1  0.44145000  0.99876000  0.86714000  1.0
  C  C372  1  0.53929000  0.18027000  0.54175000  1.0
  C  C373  1  0.47586000  0.18774000  0.58174000  1.0
  C  C374  1  0.44480000  0.15468000  0.60512000  1.0
  C  C375  1  0.47913000  0.11483000  0.58931000  1.0
  C  C376  1  0.42626000  0.08136000  0.61352000  1.0
  C  C377  1  0.54794000  0.10999000  0.55033000  1.0
  C  C378  1  0.59470000  0.06900000  0.53020000  1.0
  C  C379  1  0.65359000  0.03465000  0.54797000  1.0
  C  C380  1  0.69230000  0.03606000  0.58994000  1.0
  C  C381  1  0.68442000  0.99825000  0.52551000  1.0
  C  C382  1  0.66222000  0.99763000  0.48633000  1.0
  C  C383  1  0.61317000  0.03404000  0.46882000  1.0
  C  C384  1  0.15491000  0.90019000  0.52159000  1.0
  C  C385  1  0.05497000  0.93103000  0.52483000  1.0
  C  C386  1  0.03288000  0.95686000  0.55838000  1.0
  C  C387  1  0.10578000  0.94997000  0.58887000  1.0
  C  C388  1  0.19597000  0.91538000  0.58508000  1.0
  C  C389  1  0.08934000  0.98171000  0.62181000  1.0
  C  C390  1  0.27421000  0.89947000  0.61631000  1.0
  C  C391  1  0.23233000  0.89517000  0.65817000  1.0
  C  C392  1  0.10204000  0.90919000  0.67833000  1.0
  C  C393  1  0.31624000  0.87647000  0.68245000  1.0
  C  C394  1  0.43589000  0.86449000  0.66533000  1.0
  C  C395  1  0.46927000  0.86926000  0.62380000  1.0
  C  C396  1  0.11370000  0.07186000  0.73834000  1.0
  C  C397  1  0.02379000  0.09123000  0.77359000  1.0
  C  C398  1  0.01505000  0.07035000  0.81115000  1.0
  C  C399  1  0.94040000  0.08830000  0.84490000  1.0
  C  C400  1  0.87440000  0.12540000  0.84020000  1.0
  C  C401  1  0.95410000  0.12990000  0.77110000  1.0
  C  C402  1  0.96466000  0.15504000  0.73344000  1.0
  C  C403  1  0.94290000  0.14200000  0.69740000  1.0
  C  C404  1  0.89020000  0.10284000  0.69136000  1.0
  C  C405  1  0.97390000  0.16530000  0.66130000  1.0
  C  C406  1  0.01590000  0.20260000  0.66440000  1.0
  C  C407  1  0.01760000  0.21490000  0.70310000  1.0
  C  C408  1  0.33828000  0.79671000  0.58553000  1.0
  C  C409  1  0.35719000  0.76397000  0.61065000  1.0
  C  C410  1  0.47510000  0.74208000  0.60872000  1.0
  C  C411  1  0.56966000  0.75412000  0.58056000  1.0
  C  C412  1  0.69667000  0.72944000  0.57902000  1.0
  C  C413  1  0.54111000  0.78804000  0.55534000  1.0
  C  C414  1  0.63199000  0.80613000  0.52509000  1.0
  C  C415  1  0.72755000  0.78365000  0.49765000  1.0
  C  C416  1  0.73676000  0.73872000  0.48936000  1.0
  C  C417  1  0.81101000  0.80514000  0.47444000  1.0
  C  C418  1  0.79258000  0.84752000  0.47692000  1.0
  C  C419  1  0.69141000  0.86714000  0.50124000  1.0
  C  C420  1  0.91896000  0.54175000  0.31973000  1.0
  C  C421  1  0.94240000  0.58174000  0.31226000  1.0
  C  C422  1  0.95008000  0.60512000  0.34532000  1.0
  C  C423  1  0.93156000  0.58931000  0.38517000  1.0
  C  C424  1  0.96022000  0.61352000  0.41864000  1.0
  C  C425  1  0.90173000  0.55033000  0.39001000  1.0
  C  C426  1  0.87510000  0.53020000  0.43100000  1.0
  C  C427  1  0.79844000  0.54797000  0.46535000  1.0
  C  C428  1  0.71776000  0.58994000  0.46394000  1.0
  C  C429  1  0.79007000  0.52551000  0.50175000  1.0
  C  C430  1  0.85145000  0.48633000  0.50237000  1.0
  C  C431  1  0.91801000  0.46882000  0.46596000  1.0
  C  C432  1  0.32350000  0.52159000  0.59981000  1.0
  C  C433  1  0.42020000  0.52483000  0.56897000  1.0
  C  C434  1  0.40874000  0.55838000  0.54314000  1.0
  C  C435  1  0.30535000  0.58887000  0.55003000  1.0
  C  C436  1  0.21895000  0.58508000  0.58462000  1.0
  C  C437  1  0.28885000  0.62181000  0.51829000  1.0
  C  C438  1  0.10948000  0.61631000  0.60053000  1.0
  C  C439  1  0.10950000  0.65817000  0.60483000  1.0
  C  C440  1  0.21963000  0.67833000  0.59081000  1.0
  C  C441  1  0.00131000  0.68245000  0.62353000  1.0
  C  C442  1  0.89878000  0.66533000  0.63551000  1.0
  C  C443  1  0.90693000  0.62380000  0.63074000  1.0
  C  C444  1  0.14796000  0.73834000  0.42814000  1.0
  C  C445  1  0.20262000  0.77359000  0.40877000  1.0
  C  C446  1  0.17380000  0.81115000  0.42965000  1.0
  C  C447  1  0.21470000  0.84490000  0.41170000  1.0
  C  C448  1  0.28540000  0.84020000  0.37460000  1.0
  C  C449  1  0.27480000  0.77110000  0.37010000  1.0
  C  C450  1  0.30190000  0.73344000  0.34496000  1.0
  C  C451  1  0.35970000  0.69740000  0.35800000  1.0
  C  C452  1  0.41844000  0.69136000  0.39716000  1.0
  C  C453  1  0.36480000  0.66130000  0.33470000  1.0
  C  C454  1  0.31970000  0.66440000  0.29740000  1.0
  C  C455  1  0.27930000  0.70310000  0.28510000  1.0
  C  C456  1  0.22052000  0.70329000  0.91447000  1.0
  C  C457  1  0.23181000  0.73603000  0.88935000  1.0
  C  C458  1  0.32590000  0.75792000  0.89128000  1.0
  C  C459  1  0.40434000  0.74588000  0.91944000  1.0
  C  C460  1  0.50513000  0.77056000  0.92098000  1.0
  C  C461  1  0.38449000  0.71196000  0.94466000  1.0
  C  C462  1  0.46321000  0.69387000  0.97491000  1.0
  C  C463  1  0.50885000  0.71635000  0.00235000  1.0
  C  C464  1  0.46484000  0.76128000  0.01064000  1.0
  C  C465  1  0.59059000  0.69486000  0.02556000  1.0
  C  C466  1  0.61702000  0.65248000  0.02308000  1.0
  C  C467  1  0.55979000  0.63286000  0.99876000  1.0
  C  C468  1  0.28044000  0.95825000  0.18027000  1.0
  C  C469  1  0.33640000  0.91826000  0.18774000  1.0
  C  C470  1  0.40052000  0.89488000  0.15468000  1.0
  C  C471  1  0.40604000  0.91069000  0.11483000  1.0
  C  C472  1  0.49238000  0.88648000  0.08136000  1.0
  C  C473  1  0.34207000  0.94967000  0.10999000  1.0
  C  C474  1  0.33630000  0.96980000  0.06900000  1.0
  C  C475  1  0.31176000  0.95203000  0.03465000  1.0
  C  C476  1  0.27164000  0.91006000  0.03606000  1.0
  C  C477  1  0.31733000  0.97449000  0.99825000  1.0
  C  C478  1  0.34015000  0.01367000  0.99763000  1.0
  C  C479  1  0.35279000  0.03118000  0.03404000  1.0
  C  C480  1  0.94490000  0.97841000  0.90019000  1.0
  C  C481  1  0.01400000  0.97517000  0.93103000  1.0
  C  C482  1  0.01026000  0.94162000  0.95686000  1.0
  C  C483  1  0.94425000  0.91113000  0.94997000  1.0
  C  C484  1  0.88865000  0.91492000  0.91538000  1.0
  C  C485  1  0.92895000  0.87819000  0.98171000  1.0
  C  C486  1  0.82632000  0.88369000  0.89947000  1.0
  C  C487  1  0.87250000  0.84183000  0.89517000  1.0
  C  C488  1  0.98877000  0.82167000  0.90919000  1.0
  C  C489  1  0.80729000  0.81755000  0.87647000  1.0
  C  C490  1  0.69962000  0.83467000  0.86449000  1.0
  C  C491  1  0.66147000  0.87620000  0.86926000  1.0
  C  C492  1  0.81444000  0.76166000  0.07186000  1.0
  C  C493  1  0.88498000  0.72641000  0.09123000  1.0
  C  C494  1  0.91460000  0.68885000  0.07035000  1.0
  C  C495  1  0.97130000  0.65510000  0.08830000  1.0
  C  C496  1  0.00020000  0.65980000  0.12540000  1.0
  C  C497  1  0.91600000  0.72890000  0.12990000  1.0
  C  C498  1  0.88030000  0.76656000  0.15504000  1.0
  C  C499  1  0.91510000  0.80260000  0.14200000  1.0
  C  C500  1  0.00696000  0.80864000  0.10284000  1.0
  C  C501  1  0.86080000  0.83870000  0.16530000  1.0
  C  C502  1  0.78150000  0.83560000  0.20260000  1.0
  C  C503  1  0.76750000  0.79690000  0.21490000  1.0
  C  C504  1  0.92381000  0.41447000  0.29671000  1.0
  C  C505  1  0.96784000  0.38935000  0.26397000  1.0
  C  C506  1  0.08382000  0.39128000  0.24208000  1.0
  C  C507  1  0.15022000  0.41944000  0.25412000  1.0
  C  C508  1  0.27569000  0.42098000  0.22944000  1.0
  C  C509  1  0.09645000  0.44466000  0.28804000  1.0
  C  C510  1  0.15708000  0.47491000  0.30613000  1.0
  C  C511  1  0.22520000  0.50235000  0.28365000  1.0
  C  C512  1  0.22612000  0.51064000  0.23872000  1.0
  C  C513  1  0.28545000  0.52556000  0.30514000  1.0
  C  C514  1  0.26950000  0.52308000  0.34752000  1.0
  C  C515  1  0.19265000  0.49876000  0.36714000  1.0
  C  C516  1  0.23869000  0.68027000  0.04175000  1.0
  C  C517  1  0.25466000  0.68774000  0.08174000  1.0
  C  C518  1  0.29540000  0.65468000  0.10512000  1.0
  C  C519  1  0.31673000  0.61483000  0.08931000  1.0
  C  C520  1  0.37886000  0.58136000  0.11352000  1.0
  C  C521  1  0.29174000  0.60999000  0.05033000  1.0
  C  C522  1  0.30610000  0.56900000  0.03020000  1.0
  C  C523  1  0.26379000  0.53465000  0.04797000  1.0
  C  C524  1  0.18170000  0.53606000  0.08994000  1.0
  C  C525  1  0.29182000  0.49825000  0.02551000  1.0
  C  C526  1  0.35382000  0.49763000  0.98633000  1.0
  C  C527  1  0.38397000  0.53404000  0.96882000  1.0
  C  C528  1  0.92331000  0.40019000  0.02159000  1.0
  C  C529  1  0.98917000  0.43103000  0.02483000  1.0
  C  C530  1  0.95188000  0.45686000  0.05838000  1.0
  C  C531  1  0.85538000  0.44997000  0.08887000  1.0
  C  C532  1  0.80357000  0.41538000  0.08508000  1.0
  C  C533  1  0.80714000  0.48171000  0.12181000  1.0
  C  C534  1  0.71001000  0.39947000  0.11631000  1.0
  C  C535  1  0.71433000  0.39517000  0.15817000  1.0
  C  C536  1  0.81044000  0.40919000  0.17833000  1.0
  C  C537  1  0.62484000  0.37647000  0.18245000  1.0
  C  C538  1  0.53429000  0.36449000  0.16533000  1.0
  C  C539  1  0.53767000  0.36926000  0.12380000  1.0
  C  C540  1  0.57610000  0.57186000  0.23834000  1.0
  C  C541  1  0.61139000  0.59123000  0.27359000  1.0
  C  C542  1  0.60345000  0.57035000  0.31115000  1.0
  C  C543  1  0.62640000  0.58830000  0.34490000  1.0
  C  C544  1  0.66000000  0.62540000  0.34020000  1.0
  C  C545  1  0.64490000  0.62990000  0.27110000  1.0
  C  C546  1  0.64686000  0.65504000  0.23344000  1.0
  C  C547  1  0.71770000  0.64200000  0.19740000  1.0
  C  C548  1  0.81560000  0.60284000  0.19136000  1.0
  C  C549  1  0.69950000  0.66530000  0.16130000  1.0
  C  C550  1  0.61710000  0.70260000  0.16440000  1.0
  C  C551  1  0.56440000  0.71490000  0.20310000  1.0
  C  C552  1  0.13499000  0.08553000  0.20329000  1.0
  C  C553  1  0.12116000  0.11065000  0.23603000  1.0
  C  C554  1  0.21718000  0.10872000  0.25792000  1.0
  C  C555  1  0.32378000  0.08056000  0.24588000  1.0
  C  C556  1  0.42611000  0.07902000  0.27056000  1.0
  C  C557  1  0.32915000  0.05534000  0.21196000  1.0
  C  C558  1  0.43812000  0.02509000  0.19387000  1.0
  C  C559  1  0.51120000  0.99765000  0.21635000  1.0
  C  C560  1  0.47548000  0.98936000  0.26128000  1.0
  C  C561  1  0.61615000  0.97444000  0.19486000  1.0
  C  C562  1  0.64010000  0.97692000  0.15248000  1.0
  C  C563  1  0.55855000  0.00124000  0.13286000  1.0
  C  C564  1  0.46071000  0.81973000  0.45825000  1.0
  C  C565  1  0.52414000  0.81226000  0.41826000  1.0
  C  C566  1  0.55520000  0.84532000  0.39488000  1.0
  C  C567  1  0.52087000  0.88517000  0.41069000  1.0
  C  C568  1  0.57374000  0.91864000  0.38648000  1.0
  C  C569  1  0.45206000  0.89001000  0.44967000  1.0
  C  C570  1  0.40530000  0.93100000  0.46980000  1.0
  C  C571  1  0.34641000  0.96535000  0.45203000  1.0
  C  C572  1  0.30770000  0.96394000  0.41006000  1.0
  C  C573  1  0.31558000  0.00175000  0.47449000  1.0
  C  C574  1  0.33778000  0.00237000  0.51367000  1.0
  C  C575  1  0.38683000  0.96596000  0.53118000  1.0
  C  C576  1  0.84509000  0.09981000  0.47841000  1.0
  C  C577  1  0.94503000  0.06897000  0.47517000  1.0
  C  C578  1  0.96712000  0.04314000  0.44162000  1.0
  C  C579  1  0.89422000  0.05003000  0.41113000  1.0
  C  C580  1  0.80403000  0.08462000  0.41492000  1.0
  C  C581  1  0.91066000  0.01829000  0.37819000  1.0
  C  C582  1  0.72579000  0.10053000  0.38369000  1.0
  C  C583  1  0.76767000  0.10483000  0.34183000  1.0
  C  C584  1  0.89796000  0.09081000  0.32167000  1.0
  C  C585  1  0.68376000  0.12353000  0.31755000  1.0
  C  C586  1  0.56411000  0.13551000  0.33467000  1.0
  C  C587  1  0.53073000  0.13074000  0.37620000  1.0
  C  C588  1  0.88630000  0.92814000  0.26166000  1.0
  C  C589  1  0.97621000  0.90877000  0.22641000  1.0
  C  C590  1  0.98495000  0.92965000  0.18885000  1.0
  C  C591  1  0.05960000  0.91170000  0.15510000  1.0
  C  C592  1  0.12560000  0.87460000  0.15980000  1.0
  C  C593  1  0.04590000  0.87010000  0.22890000  1.0
  C  C594  1  0.03534000  0.84496000  0.26656000  1.0
  C  C595  1  0.05710000  0.85800000  0.30260000  1.0
  C  C596  1  0.10980000  0.89716000  0.30864000  1.0
  C  C597  1  0.02610000  0.83470000  0.33870000  1.0
  C  C598  1  0.98410000  0.79740000  0.33560000  1.0
  C  C599  1  0.98240000  0.78510000  0.29690000  1.0
  N  N600  1  0.57235000  0.19062000  0.44188000  1.0
  N  N601  1  0.38898000  0.15303000  0.47501000  1.0
  N  N602  1  0.09978000  0.47336000  0.64228000  1.0
  N  N603  1  0.07058000  0.51023000  0.56901000  1.0
  N  N604  1  0.99121000  0.40038000  0.38600000  1.0
  N  N605  1  0.77562000  0.44949000  0.39207000  1.0
  N  N606  1  0.73157000  0.26210000  0.69256000  1.0
  N  N607  1  0.68040000  0.19556000  0.64784000  1.0
  N  N608  1  0.70485000  0.30938000  0.05812000  1.0
  N  N609  1  0.51702000  0.34697000  0.02499000  1.0
  N  N610  1  0.71542000  0.02664000  0.85772000  1.0
  N  N611  1  0.64982000  0.98977000  0.93099000  1.0
  N  N612  1  0.27759000  0.09962000  0.11400000  1.0
  N  N613  1  0.11718000  0.05051000  0.10793000  1.0
  N  N614  1  0.18623000  0.23790000  0.80744000  1.0
  N  N615  1  0.02380000  0.30444000  0.85216000  1.0
  N  N616  1  0.01423000  0.55812000  0.69062000  1.0
  N  N617  1  0.86399000  0.52499000  0.65303000  1.0
  N  N618  1  0.74206000  0.35772000  0.97336000  1.0
  N  N619  1  0.63959000  0.43099000  0.01023000  1.0
  N  N620  1  0.37721000  0.61400000  0.90038000  1.0
  N  N621  1  0.16769000  0.60793000  0.94949000  1.0
  N  N622  1  0.42413000  0.30744000  0.76210000  1.0
  N  N623  1  0.32824000  0.35216000  0.69556000  1.0
  N  N624  1  0.76297000  0.94188000  0.80938000  1.0
  N  N625  1  0.54201000  0.97501000  0.84697000  1.0
  N  N626  1  0.57314000  0.14228000  0.52664000  1.0
  N  N627  1  0.58081000  0.06901000  0.48977000  1.0
  N  N628  1  0.39159000  0.88600000  0.59962000  1.0
  N  N629  1  0.22511000  0.89207000  0.55051000  1.0
  N  N630  1  0.99367000  0.19256000  0.73790000  1.0
  N  N631  1  0.87596000  0.14784000  0.80444000  1.0
  N  N632  1  0.42765000  0.80938000  0.55812000  1.0
  N  N633  1  0.61102000  0.84697000  0.52499000  1.0
  N  N634  1  0.90022000  0.52664000  0.35772000  1.0
  N  N635  1  0.92942000  0.48977000  0.43099000  1.0
  N  N636  1  0.00879000  0.59962000  0.61400000  1.0
  N  N637  1  0.22438000  0.55051000  0.60793000  1.0
  N  N638  1  0.26843000  0.73790000  0.30744000  1.0
  N  N639  1  0.31960000  0.80444000  0.35216000  1.0
  N  N640  1  0.29515000  0.69062000  0.94188000  1.0
  N  N641  1  0.48298000  0.65303000  0.97501000  1.0
  N  N642  1  0.28458000  0.97336000  0.14228000  1.0
  N  N643  1  0.35018000  0.01023000  0.06901000  1.0
  N  N644  1  0.72241000  0.90038000  0.88600000  1.0
  N  N645  1  0.88282000  0.94949000  0.89207000  1.0
  N  N646  1  0.81377000  0.76210000  0.19256000  1.0
  N  N647  1  0.97620000  0.69556000  0.14784000  1.0
  N  N648  1  0.98577000  0.44188000  0.30938000  1.0
  N  N649  1  0.13601000  0.47501000  0.34697000  1.0
  N  N650  1  0.25794000  0.64228000  0.02664000  1.0
  N  N651  1  0.36041000  0.56901000  0.98977000  1.0
  N  N652  1  0.62279000  0.38600000  0.09962000  1.0
  N  N653  1  0.83231000  0.39207000  0.05051000  1.0
  N  N654  1  0.57587000  0.69256000  0.23790000  1.0
  N  N655  1  0.67176000  0.64784000  0.30444000  1.0
  N  N656  1  0.23703000  0.05812000  0.19062000  1.0
  N  N657  1  0.45799000  0.02499000  0.15303000  1.0
  N  N658  1  0.42686000  0.85772000  0.47336000  1.0
  N  N659  1  0.41919000  0.93099000  0.51023000  1.0
  N  N660  1  0.60841000  0.11400000  0.40038000  1.0
  N  N661  1  0.77489000  0.10793000  0.44949000  1.0
  N  N662  1  0.00633000  0.80744000  0.26210000  1.0
  N  N663  1  0.12404000  0.85216000  0.19556000  1.0
  O  O664  1  0.29314000  0.30866000  0.42206000  1.0
  O  O665  1  0.21696000  0.25064000  0.42144000  1.0
  O  O666  1  0.36313000  0.27460000  0.50634000  1.0
  O  O667  1  0.16095000  0.28222000  0.52248000  1.0
  O  O668  1  0.06040000  0.34738000  0.58502000  1.0
  O  O669  1  0.99618000  0.40368000  0.55216000  1.0
  O  O670  1  0.36129000  0.40647000  0.55855000  1.0
  O  O671  1  0.27154000  0.38185000  0.51307000  1.0
  O  O672  1  0.79737000  0.28886000  0.42880000  1.0
  O  O673  1  0.68070000  0.33922000  0.39998000  1.0
  O  O674  1  0.54121000  0.27945000  0.58973000  1.0
  O  O675  1  0.56823000  0.34326000  0.58828000  1.0
  O  O676  1  0.61823000  0.36941000  0.50353000  1.0
  O  O677  1  0.81894000  0.36333000  0.48479000  1.0
  O  O678  1  0.93380000  0.27401000  0.58619000  1.0
  O  O679  1  0.81371000  0.27819000  0.54059000  1.0
  O  O680  1  0.52386000  0.19134000  0.07794000  1.0
  O  O681  1  0.38904000  0.24936000  0.07856000  1.0
  O  O682  1  0.64407000  0.22540000  0.99366000  1.0
  O  O683  1  0.46565000  0.21778000  0.97752000  1.0
  O  O684  1  0.49280000  0.15262000  0.91498000  1.0
  O  O685  1  0.45202000  0.09632000  0.94784000  1.0
  O  O686  1  0.82631000  0.09353000  0.94145000  1.0
  O  O687  1  0.66646000  0.11815000  0.98693000  1.0
  O  O688  1  0.01503000  0.21114000  0.07120000  1.0
  O  O689  1  0.91990000  0.16078000  0.10002000  1.0
  O  O690  1  0.91039000  0.22055000  0.91027000  1.0
  O  O691  1  0.99977000  0.15674000  0.91172000  1.0
  O  O692  1  0.99117000  0.13059000  0.99647000  1.0
  O  O693  1  0.16706000  0.13667000  0.01521000  1.0
  O  O694  1  0.29400000  0.22599000  0.91381000  1.0
  O  O695  1  0.13249000  0.22181000  0.95941000  1.0
  O  O696  1  0.71520000  0.57794000  0.80866000  1.0
  O  O697  1  0.63840000  0.57856000  0.75064000  1.0
  O  O698  1  0.86947000  0.49366000  0.77460000  1.0
  O  O699  1  0.68343000  0.47752000  0.78222000  1.0
  O  O700  1  0.64542000  0.41498000  0.84738000  1.0
  O  O701  1  0.54834000  0.44784000  0.90368000  1.0
  O  O702  1  0.91984000  0.44145000  0.90647000  1.0
  O  O703  1  0.78461000  0.48693000  0.88185000  1.0
  O  O704  1  0.22617000  0.57120000  0.78886000  1.0
  O  O705  1  0.08068000  0.60002000  0.83922000  1.0
  O  O706  1  0.13094000  0.41027000  0.77945000  1.0
  O  O707  1  0.15651000  0.41172000  0.84326000  1.0
  O  O708  1  0.12176000  0.49647000  0.86941000  1.0
  O  O709  1  0.30373000  0.51521000  0.86333000  1.0
  O  O710  1  0.51999000  0.41381000  0.77401000  1.0
  O  O711  1  0.35430000  0.45941000  0.77819000  1.0
  O  O712  1  0.60180000  0.92206000  0.69134000  1.0
  O  O713  1  0.46760000  0.92144000  0.74936000  1.0
  O  O714  1  0.63773000  0.00634000  0.72540000  1.0
  O  O715  1  0.44317000  0.02248000  0.71778000  1.0
  O  O716  1  0.40778000  0.08502000  0.65262000  1.0
  O  O717  1  0.39986000  0.05216000  0.59632000  1.0
  O  O718  1  0.76776000  0.05855000  0.59353000  1.0
  O  O719  1  0.65339000  0.01307000  0.61815000  1.0
  O  O720  1  0.08623000  0.92880000  0.71114000  1.0
  O  O721  1  0.01992000  0.89998000  0.66078000  1.0
  O  O722  1  0.82066000  0.08973000  0.72055000  1.0
  O  O723  1  0.91149000  0.08828000  0.65674000  1.0
  O  O724  1  0.98764000  0.00353000  0.63059000  1.0
  O  O725  1  0.18227000  0.98479000  0.63667000  1.0
  O  O726  1  0.20781000  0.08619000  0.72599000  1.0
  O  O727  1  0.09190000  0.04059000  0.72181000  1.0
  O  O728  1  0.70686000  0.69134000  0.57794000  1.0
  O  O729  1  0.78304000  0.74936000  0.57856000  1.0
  O  O730  1  0.63687000  0.72540000  0.49366000  1.0
  O  O731  1  0.83905000  0.71778000  0.47752000  1.0
  O  O732  1  0.93960000  0.65262000  0.41498000  1.0
  O  O733  1  0.00382000  0.59632000  0.44784000  1.0
  O  O734  1  0.63871000  0.59353000  0.44145000  1.0
  O  O735  1  0.72846000  0.61815000  0.48693000  1.0
  O  O736  1  0.20263000  0.71114000  0.57120000  1.0
  O  O737  1  0.31930000  0.66078000  0.60002000  1.0
  O  O738  1  0.45879000  0.72055000  0.41027000  1.0
  O  O739  1  0.43177000  0.65674000  0.41172000  1.0
  O  O740  1  0.38177000  0.63059000  0.49647000  1.0
  O  O741  1  0.18106000  0.63667000  0.51521000  1.0
  O  O742  1  0.06620000  0.72599000  0.41381000  1.0
  O  O743  1  0.18629000  0.72181000  0.45941000  1.0
  O  O744  1  0.47614000  0.80866000  0.92206000  1.0
  O  O745  1  0.61096000  0.75064000  0.92144000  1.0
  O  O746  1  0.35593000  0.77460000  0.00634000  1.0
  O  O747  1  0.53435000  0.78222000  0.02248000  1.0
  O  O748  1  0.50720000  0.84738000  0.08502000  1.0
  O  O749  1  0.54798000  0.90368000  0.05216000  1.0
  O  O750  1  0.17369000  0.90647000  0.05855000  1.0
  O  O751  1  0.33354000  0.88185000  0.01307000  1.0
  O  O752  1  0.98497000  0.78886000  0.92880000  1.0
  O  O753  1  0.08010000  0.83922000  0.89998000  1.0
  O  O754  1  0.08961000  0.77945000  0.08973000  1.0
  O  O755  1  0.00023000  0.84326000  0.08828000  1.0
  O  O756  1  0.00883000  0.86941000  0.00353000  1.0
  O  O757  1  0.83294000  0.86333000  0.98479000  1.0
  O  O758  1  0.70600000  0.77401000  0.08619000  1.0
  O  O759  1  0.86751000  0.77819000  0.04059000  1.0
  O  O760  1  0.28480000  0.42206000  0.19134000  1.0
  O  O761  1  0.36160000  0.42144000  0.24936000  1.0
  O  O762  1  0.13053000  0.50634000  0.22540000  1.0
  O  O763  1  0.31657000  0.52248000  0.21778000  1.0
  O  O764  1  0.35458000  0.58502000  0.15262000  1.0
  O  O765  1  0.45166000  0.55216000  0.09632000  1.0
  O  O766  1  0.08016000  0.55855000  0.09353000  1.0
  O  O767  1  0.21539000  0.51307000  0.11815000  1.0
  O  O768  1  0.77383000  0.42880000  0.21114000  1.0
  O  O769  1  0.91932000  0.39998000  0.16078000  1.0
  O  O770  1  0.86906000  0.58973000  0.22055000  1.0
  O  O771  1  0.84349000  0.58828000  0.15674000  1.0
  O  O772  1  0.87824000  0.50353000  0.13059000  1.0
  O  O773  1  0.69627000  0.48479000  0.13667000  1.0
  O  O774  1  0.48001000  0.58619000  0.22599000  1.0
  O  O775  1  0.64570000  0.54059000  0.22181000  1.0
  O  O776  1  0.39820000  0.07794000  0.30866000  1.0
  O  O777  1  0.53240000  0.07856000  0.25064000  1.0
  O  O778  1  0.36227000  0.99366000  0.27460000  1.0
  O  O779  1  0.55683000  0.97752000  0.28222000  1.0
  O  O780  1  0.59222000  0.91498000  0.34738000  1.0
  O  O781  1  0.60014000  0.94784000  0.40368000  1.0
  O  O782  1  0.23224000  0.94145000  0.40647000  1.0
  O  O783  1  0.34661000  0.98693000  0.38185000  1.0
  O  O784  1  0.91377000  0.07120000  0.28886000  1.0
  O  O785  1  0.98008000  0.10002000  0.33922000  1.0
  O  O786  1  0.17934000  0.91027000  0.27945000  1.0
  O  O787  1  0.08851000  0.91172000  0.34326000  1.0
  O  O788  1  0.01236000  0.99647000  0.36941000  1.0
  O  O789  1  0.81773000  0.01521000  0.36333000  1.0
  O  O790  1  0.79219000  0.91381000  0.27401000  1.0
  O  O791  1  0.90810000  0.95941000  0.27819000  1.0
