# generated using pymatgen
data_Nd2CoH24C48(NO2)8
_symmetry_space_group_name_H-M   'P 1'
_cell_length_a   11.22760000
_cell_length_b   32.86700000
_cell_length_c   32.86700000
_cell_angle_alpha   88.32820000
_cell_angle_beta   80.16550000
_cell_angle_gamma   80.16560000
_symmetry_Int_Tables_number   1
_chemical_formula_structural   Nd2CoH24C48(NO2)8
_chemical_formula_sum   'Nd16 Co8 H192 C384 N64 O128'
_cell_volume   11774.67067046
_cell_formula_units_Z   8
loop_
 _symmetry_equiv_pos_site_id
 _symmetry_equiv_pos_as_xyz
  1  'x, y, z'
loop_
 _atom_site_type_symbol
 _atom_site_label
 _atom_site_symmetry_multiplicity
 _atom_site_fract_x
 _atom_site_fract_y
 _atom_site_fract_z
 _atom_site_occupancy
  Nd  Nd0  1  0.81681000  0.97073000  0.17109000  1.0
  Nd  Nd1  1  0.31759000  0.97373000  0.17318000  1.0
  Nd  Nd2  1  0.45863000  0.52927000  0.32891000  1.0
  Nd  Nd3  1  0.96449000  0.52627000  0.32682000  1.0
  Nd  Nd4  1  0.98790000  0.82891000  0.47073000  1.0
  Nd  Nd5  1  0.49076000  0.82682000  0.47374000  1.0
  Nd  Nd6  1  0.78754000  0.67109000  0.02927000  1.0
  Nd  Nd7  1  0.29132000  0.67318000  0.02626000  1.0
  Nd  Nd8  1  0.18319000  0.02927000  0.82891000  1.0
  Nd  Nd9  1  0.68241000  0.02627000  0.82682000  1.0
  Nd  Nd10  1  0.54137000  0.47073000  0.67109000  1.0
  Nd  Nd11  1  0.03551000  0.47373000  0.67318000  1.0
  Nd  Nd12  1  0.01210000  0.17109000  0.52927000  1.0
  Nd  Nd13  1  0.50924000  0.17318000  0.52626000  1.0
  Nd  Nd14  1  0.21246000  0.32891000  0.97073000  1.0
  Nd  Nd15  1  0.70868000  0.32682000  0.97374000  1.0
  Co  Co16  1  0.67461000  0.03689000  0.37083000  1.0
  Co  Co17  1  0.58233000  0.46311000  0.12917000  1.0
  Co  Co18  1  0.04544000  0.62917000  0.53689000  1.0
  Co  Co19  1  0.71150000  0.87083000  0.96311000  1.0
  Co  Co20  1  0.32539000  0.96311000  0.62917000  1.0
  Co  Co21  1  0.41767000  0.53689000  0.87083000  1.0
  Co  Co22  1  0.95456000  0.37083000  0.46311000  1.0
  Co  Co23  1  0.28850000  0.12917000  0.03689000  1.0
  H  H24  1  0.37210000  0.95660000  0.29020000  1.0
  H  H25  1  0.69830000  0.02610000  0.03830000  1.0
  H  H26  1  0.31850000  0.96300000  0.36180000  1.0
  H  H27  1  0.65350000  0.02790000  0.97170000  1.0
  H  H28  1  0.42400000  0.00060000  0.39600000  1.0
  H  H29  1  0.63590000  0.96720000  0.94180000  1.0
  H  H30  1  0.66450000  0.12530000  0.21970000  1.0
  H  H31  1  0.84390000  0.08720000  0.31180000  1.0
  H  H32  1  0.54980000  0.84110000  0.13210000  1.0
  H  H33  1  0.75760000  0.79770000  0.02630000  1.0
  H  H34  1  0.82250000  0.12930000  0.25570000  1.0
  H  H35  1  0.95080000  0.01860000  0.06100000  1.0
  H  H36  1  0.10160000  0.95670000  0.31290000  1.0
  H  H37  1  0.66360000  0.78600000  0.09300000  1.0
  H  H38  1  0.93620000  0.06350000  0.00550000  1.0
  H  H39  1  0.01040000  0.92470000  0.37170000  1.0
  H  H40  1  0.05660000  0.11490000  0.99750000  1.0
  H  H41  1  0.95720000  0.86450000  0.36350000  1.0
  H  H42  1  0.16440000  0.12660000  0.21100000  1.0
  H  H43  1  0.41250000  0.13960000  0.11240000  1.0
  H  H44  1  0.12070000  0.84360000  0.13480000  1.0
  H  H45  1  0.27660000  0.75910000  0.20590000  1.0
  H  H46  1  0.34740000  0.14800000  0.18120000  1.0
  H  H47  1  0.26220000  0.78290000  0.14030000  1.0
  H  H48  1  0.11890000  0.54340000  0.20980000  1.0
  H  H49  1  0.26270000  0.47390000  0.46170000  1.0
  H  H50  1  0.14330000  0.53700000  0.13820000  1.0
  H  H51  1  0.15310000  0.47210000  0.52830000  1.0
  H  H52  1  0.32060000  0.49940000  0.10400000  1.0
  H  H53  1  0.04490000  0.53280000  0.55820000  1.0
  H  H54  1  0.50950000  0.37470000  0.28030000  1.0
  H  H55  1  0.74290000  0.41280000  0.18820000  1.0
  H  H56  1  0.02300000  0.65890000  0.36790000  1.0
  H  H57  1  0.08160000  0.70230000  0.47370000  1.0
  H  H58  1  0.70750000  0.37070000  0.24430000  1.0
  H  H59  1  0.53040000  0.48140000  0.43900000  1.0
  H  H60  1  0.87120000  0.54330000  0.18710000  1.0
  H  H61  1  0.04260000  0.71400000  0.40700000  1.0
  H  H62  1  0.50520000  0.43650000  0.49450000  1.0
  H  H63  1  0.80680000  0.57530000  0.12830000  1.0
  H  H64  1  0.66900000  0.38510000  0.50250000  1.0
  H  H65  1  0.68520000  0.63550000  0.13650000  1.0
  H  H66  1  0.00200000  0.37340000  0.28900000  1.0
  H  H67  1  0.16450000  0.36040000  0.38760000  1.0
  H  H68  1  0.59910000  0.65640000  0.36520000  1.0
  H  H69  1  0.74160000  0.74090000  0.29410000  1.0
  H  H70  1  0.17660000  0.35200000  0.31880000  1.0
  H  H71  1  0.68540000  0.71710000  0.35970000  1.0
  H  H72  1  0.66230000  0.70980000  0.45660000  1.0
  H  H73  1  0.73660000  0.96170000  0.52610000  1.0
  H  H74  1  0.68030000  0.63820000  0.46300000  1.0
  H  H75  1  0.62520000  0.02830000  0.52790000  1.0
  H  H76  1  0.82000000  0.60400000  0.50060000  1.0
  H  H77  1  0.57770000  0.05820000  0.46720000  1.0
  H  H78  1  0.88420000  0.78030000  0.62530000  1.0
  H  H79  1  0.15570000  0.68820000  0.58720000  1.0
  H  H80  1  0.68190000  0.86790000  0.34110000  1.0
  H  H81  1  0.78390000  0.97370000  0.29770000  1.0
  H  H82  1  0.07820000  0.74430000  0.62930000  1.0
  H  H83  1  0.01180000  0.93900000  0.51860000  1.0
  H  H84  1  0.41450000  0.68710000  0.45670000  1.0
  H  H85  1  0.75660000  0.90700000  0.28600000  1.0
  H  H86  1  0.94170000  0.99450000  0.56350000  1.0
  H  H87  1  0.38210000  0.62830000  0.42470000  1.0
  H  H88  1  0.05410000  0.00250000  0.61490000  1.0
  H  H89  1  0.32070000  0.63650000  0.36450000  1.0
  H  H90  1  0.37540000  0.78900000  0.62660000  1.0
  H  H91  1  0.52490000  0.88760000  0.63960000  1.0
  H  H92  1  0.25550000  0.86520000  0.34360000  1.0
  H  H93  1  0.48250000  0.79410000  0.25910000  1.0
  H  H94  1  0.52860000  0.81880000  0.64800000  1.0
  H  H95  1  0.40250000  0.85970000  0.28290000  1.0
  H  H96  1  0.32870000  0.79020000  0.04340000  1.0
  H  H97  1  0.72440000  0.53830000  0.97390000  1.0
  H  H98  1  0.28150000  0.86180000  0.03700000  1.0
  H  H99  1  0.68140000  0.47170000  0.97210000  1.0
  H  H100  1  0.42460000  0.89600000  0.99940000  1.0
  H  H101  1  0.60310000  0.44180000  0.03280000  1.0
  H  H102  1  0.78980000  0.71970000  0.87470000  1.0
  H  H103  1  0.93110000  0.81180000  0.91280000  1.0
  H  H104  1  0.39090000  0.63210000  0.15890000  1.0
  H  H105  1  0.55530000  0.52630000  0.20230000  1.0
  H  H106  1  0.95180000  0.75570000  0.87070000  1.0
  H  H107  1  0.96940000  0.56100000  0.98140000  1.0
  H  H108  1  0.05830000  0.81290000  0.04330000  1.0
  H  H109  1  0.44960000  0.59300000  0.21400000  1.0
  H  H110  1  0.99970000  0.50550000  0.93650000  1.0
  H  H111  1  0.93510000  0.87170000  0.07530000  1.0
  H  H112  1  0.17150000  0.49750000  0.88510000  1.0
  H  H113  1  0.82170000  0.86350000  0.13550000  1.0
  H  H114  1  0.29100000  0.71100000  0.87340000  1.0
  H  H115  1  0.55210000  0.61240000  0.86040000  1.0
  H  H116  1  0.96430000  0.63480000  0.15640000  1.0
  H  H117  1  0.03570000  0.70590000  0.24090000  1.0
  H  H118  1  0.49540000  0.68120000  0.85200000  1.0
  H  H119  1  0.04510000  0.64030000  0.21710000  1.0
  H  H120  1  0.62790000  0.04340000  0.70980000  1.0
  H  H121  1  0.30170000  0.97390000  0.96170000  1.0
  H  H122  1  0.68150000  0.03700000  0.63820000  1.0
  H  H123  1  0.34650000  0.97210000  0.02830000  1.0
  H  H124  1  0.57600000  0.99940000  0.60400000  1.0
  H  H125  1  0.36410000  0.03280000  0.05820000  1.0
  H  H126  1  0.33550000  0.87470000  0.78030000  1.0
  H  H127  1  0.15610000  0.91280000  0.68820000  1.0
  H  H128  1  0.45020000  0.15890000  0.86790000  1.0
  H  H129  1  0.24240000  0.20230000  0.97370000  1.0
  H  H130  1  0.17750000  0.87070000  0.74430000  1.0
  H  H131  1  0.04920000  0.98140000  0.93900000  1.0
  H  H132  1  0.89840000  0.04330000  0.68710000  1.0
  H  H133  1  0.33640000  0.21400000  0.90700000  1.0
  H  H134  1  0.06380000  0.93650000  0.99450000  1.0
  H  H135  1  0.98960000  0.07530000  0.62830000  1.0
  H  H136  1  0.94340000  0.88510000  0.00250000  1.0
  H  H137  1  0.04280000  0.13550000  0.63650000  1.0
  H  H138  1  0.83560000  0.87340000  0.78900000  1.0
  H  H139  1  0.58750000  0.86040000  0.88760000  1.0
  H  H140  1  0.87930000  0.15640000  0.86520000  1.0
  H  H141  1  0.72340000  0.24090000  0.79410000  1.0
  H  H142  1  0.65260000  0.85200000  0.81880000  1.0
  H  H143  1  0.73780000  0.21710000  0.85970000  1.0
  H  H144  1  0.88110000  0.45660000  0.79020000  1.0
  H  H145  1  0.73730000  0.52610000  0.53830000  1.0
  H  H146  1  0.85670000  0.46300000  0.86180000  1.0
  H  H147  1  0.84690000  0.52790000  0.47170000  1.0
  H  H148  1  0.67940000  0.50060000  0.89600000  1.0
  H  H149  1  0.95510000  0.46720000  0.44180000  1.0
  H  H150  1  0.49050000  0.62530000  0.71970000  1.0
  H  H151  1  0.25710000  0.58720000  0.81180000  1.0
  H  H152  1  0.97700000  0.34110000  0.63210000  1.0
  H  H153  1  0.91840000  0.29770000  0.52630000  1.0
  H  H154  1  0.29250000  0.62930000  0.75570000  1.0
  H  H155  1  0.46960000  0.51860000  0.56100000  1.0
  H  H156  1  0.12880000  0.45670000  0.81290000  1.0
  H  H157  1  0.95740000  0.28600000  0.59300000  1.0
  H  H158  1  0.49480000  0.56350000  0.50550000  1.0
  H  H159  1  0.19320000  0.42470000  0.87170000  1.0
  H  H160  1  0.33100000  0.61490000  0.49750000  1.0
  H  H161  1  0.31480000  0.36450000  0.86350000  1.0
  H  H162  1  0.99800000  0.62660000  0.71100000  1.0
  H  H163  1  0.83550000  0.63960000  0.61240000  1.0
  H  H164  1  0.40090000  0.34360000  0.63480000  1.0
  H  H165  1  0.25840000  0.25910000  0.70590000  1.0
  H  H166  1  0.82340000  0.64800000  0.68120000  1.0
  H  H167  1  0.31460000  0.28290000  0.64030000  1.0
  H  H168  1  0.33770000  0.29020000  0.54340000  1.0
  H  H169  1  0.26340000  0.03830000  0.47390000  1.0
  H  H170  1  0.31970000  0.36180000  0.53700000  1.0
  H  H171  1  0.37480000  0.97170000  0.47210000  1.0
  H  H172  1  0.18000000  0.39600000  0.49940000  1.0
  H  H173  1  0.42230000  0.94180000  0.53280000  1.0
  H  H174  1  0.11580000  0.21970000  0.37470000  1.0
  H  H175  1  0.84430000  0.31180000  0.41280000  1.0
  H  H176  1  0.31810000  0.13210000  0.65890000  1.0
  H  H177  1  0.21610000  0.02630000  0.70230000  1.0
  H  H178  1  0.92180000  0.25570000  0.37070000  1.0
  H  H179  1  0.98820000  0.06100000  0.48140000  1.0
  H  H180  1  0.58550000  0.31290000  0.54330000  1.0
  H  H181  1  0.24340000  0.09300000  0.71400000  1.0
  H  H182  1  0.05830000  0.00550000  0.43650000  1.0
  H  H183  1  0.61790000  0.37170000  0.57530000  1.0
  H  H184  1  0.94590000  0.99750000  0.38510000  1.0
  H  H185  1  0.67930000  0.36350000  0.63550000  1.0
  H  H186  1  0.62460000  0.21100000  0.37340000  1.0
  H  H187  1  0.47510000  0.11240000  0.36040000  1.0
  H  H188  1  0.74450000  0.13480000  0.65640000  1.0
  H  H189  1  0.51750000  0.20590000  0.74090000  1.0
  H  H190  1  0.47140000  0.18120000  0.35200000  1.0
  H  H191  1  0.59750000  0.14030000  0.71710000  1.0
  H  H192  1  0.67130000  0.20980000  0.95660000  1.0
  H  H193  1  0.27560000  0.46170000  0.02610000  1.0
  H  H194  1  0.71850000  0.13820000  0.96300000  1.0
  H  H195  1  0.31860000  0.52830000  0.02790000  1.0
  H  H196  1  0.57540000  0.10400000  0.00060000  1.0
  H  H197  1  0.39690000  0.55820000  0.96720000  1.0
  H  H198  1  0.21020000  0.28030000  0.12530000  1.0
  H  H199  1  0.06890000  0.18820000  0.08720000  1.0
  H  H200  1  0.60910000  0.36790000  0.84110000  1.0
  H  H201  1  0.44470000  0.47370000  0.79770000  1.0
  H  H202  1  0.04820000  0.24430000  0.12930000  1.0
  H  H203  1  0.03060000  0.43900000  0.01860000  1.0
  H  H204  1  0.94170000  0.18710000  0.95670000  1.0
  H  H205  1  0.55040000  0.40700000  0.78600000  1.0
  H  H206  1  0.00030000  0.49450000  0.06350000  1.0
  H  H207  1  0.06490000  0.12830000  0.92470000  1.0
  H  H208  1  0.82850000  0.50250000  0.11490000  1.0
  H  H209  1  0.17830000  0.13650000  0.86450000  1.0
  H  H210  1  0.70900000  0.28900000  0.12660000  1.0
  H  H211  1  0.44790000  0.38760000  0.13960000  1.0
  H  H212  1  0.03570000  0.36520000  0.84360000  1.0
  H  H213  1  0.96430000  0.29410000  0.75910000  1.0
  H  H214  1  0.50460000  0.31880000  0.14800000  1.0
  H  H215  1  0.95490000  0.35970000  0.78290000  1.0
  C  C216  1  0.53616000  0.98895000  0.23733000  1.0
  C  C217  1  0.72841000  0.96403000  0.09135000  1.0
  C  C218  1  0.49003000  0.99707000  0.28307000  1.0
  C  C219  1  0.68671000  0.96577000  0.04941000  1.0
  C  C220  1  0.40760000  0.97410000  0.30450000  1.0
  C  C221  1  0.53588000  0.02470000  0.30554000  1.0
  C  C222  1  0.68403000  0.00235000  0.02659000  1.0
  C  C223  1  0.66291000  0.93123000  0.03035000  1.0
  C  C224  1  0.37770000  0.97700000  0.34720000  1.0
  C  C225  1  0.61489000  0.05554000  0.28788000  1.0
  C  C226  1  0.66024000  0.00334000  0.98658000  1.0
  C  C227  1  0.65390000  0.89081000  0.05079000  1.0
  C  C228  1  0.43720000  0.00090000  0.36730000  1.0
  C  C229  1  0.59599000  0.08072000  0.25370000  1.0
  C  C230  1  0.07146000  0.01768000  0.12280000  1.0
  C  C231  1  0.18587000  0.92876000  0.23830000  1.0
  C  C232  1  0.50240000  0.91980000  0.11440000  1.0
  C  C233  1  0.64669000  0.96698000  0.96924000  1.0
  C  C234  1  0.58851000  0.88574000  0.09004000  1.0
  C  C235  1  0.67458000  0.10813000  0.24231000  1.0
  C  C236  1  0.49354000  0.07869000  0.22923000  1.0
  C  C237  1  0.78119000  0.08549000  0.29713000  1.0
  C  C238  1  0.05505000  0.04903000  0.08907000  1.0
  C  C239  1  0.11381000  0.90902000  0.27376000  1.0
  C  C240  1  0.59204000  0.84545000  0.10587000  1.0
  C  C241  1  0.71590000  0.82006000  0.04274000  1.0
  C  C242  1  0.76883000  0.11081000  0.26373000  1.0
  C  C243  1  0.11097000  0.08380000  0.08526000  1.0
  C  C244  1  0.99060000  0.04130000  0.05870000  1.0
  C  C245  1  0.08260000  0.87010000  0.27110000  1.0
  C  C246  1  0.08360000  0.93030000  0.31130000  1.0
  C  C247  1  0.65783000  0.81271000  0.08243000  1.0
  C  C248  1  0.17365000  0.10012000  0.11678000  1.0
  C  C249  1  0.98450000  0.06720000  0.02500000  1.0
  C  C250  1  0.11980000  0.84520000  0.23300000  1.0
  C  C251  1  0.02720000  0.91210000  0.34590000  1.0
  C  C252  1  0.12836000  0.10455000  0.15833000  1.0
  C  C253  1  0.05350000  0.09880000  0.02120000  1.0
  C  C254  1  0.98870000  0.89780000  0.19140000  1.0
  C  C255  1  0.08510000  0.85850000  0.19630000  1.0
  C  C256  1  0.99860000  0.87590000  0.34030000  1.0
  C  C257  1  0.00964000  0.09017000  0.17835000  1.0
  C  C258  1  0.19345000  0.12300000  0.18290000  1.0
  C  C259  1  0.33984000  0.13082000  0.12430000  1.0
  C  C260  1  0.13930000  0.83460000  0.16040000  1.0
  C  C261  1  0.23230000  0.78530000  0.20270000  1.0
  C  C262  1  0.30198000  0.13604000  0.16520000  1.0
  C  C263  1  0.21970000  0.79790000  0.16350000  1.0
  C  C264  1  0.26244000  0.51105000  0.26267000  1.0
  C  C265  1  0.28379000  0.53597000  0.40865000  1.0
  C  C266  1  0.27017000  0.50293000  0.21693000  1.0
  C  C267  1  0.20189000  0.53423000  0.45059000  1.0
  C  C268  1  0.18620000  0.52590000  0.19550000  1.0
  C  C269  1  0.36612000  0.47530000  0.19446000  1.0
  C  C270  1  0.21297000  0.49765000  0.47341000  1.0
  C  C271  1  0.12449000  0.56877000  0.46965000  1.0
  C  C272  1  0.20190000  0.52300000  0.15280000  1.0
  C  C273  1  0.45831000  0.44446000  0.21212000  1.0
  C  C274  1  0.15016000  0.49666000  0.51342000  1.0
  C  C275  1  0.09550000  0.60919000  0.44921000  1.0
  C  C276  1  0.30540000  0.49910000  0.13270000  1.0
  C  C277  1  0.43041000  0.41928000  0.24630000  1.0
  C  C278  1  0.71194000  0.48232000  0.37720000  1.0
  C  C279  1  0.85293000  0.57124000  0.26170000  1.0
  C  C280  1  0.03660000  0.58020000  0.38560000  1.0
  C  C281  1  0.08291000  0.53302000  0.53076000  1.0
  C  C282  1  0.06429000  0.61426000  0.40996000  1.0
  C  C283  1  0.52502000  0.39187000  0.25769000  1.0
  C  C284  1  0.30146000  0.42131000  0.27077000  1.0
  C  C285  1  0.66381000  0.41451000  0.20287000  1.0
  C  C286  1  0.69315000  0.45097000  0.41093000  1.0
  C  C287  1  0.79659000  0.59098000  0.22624000  1.0
  C  C288  1  0.04336000  0.65455000  0.39413000  1.0
  C  C289  1  0.07870000  0.67994000  0.45726000  1.0
  C  C290  1  0.64337000  0.38919000  0.23627000  1.0
  C  C291  1  0.78003000  0.41620000  0.41474000  1.0
  C  C292  1  0.59060000  0.45870000  0.44130000  1.0
  C  C293  1  0.72380000  0.62990000  0.22890000  1.0
  C  C294  1  0.82520000  0.56970000  0.18870000  1.0
  C  C295  1  0.05297000  0.68729000  0.41757000  1.0
  C  C296  1  0.89055000  0.39988000  0.38322000  1.0
  C  C297  1  0.57670000  0.43280000  0.47500000  1.0
  C  C298  1  0.69800000  0.65480000  0.26700000  1.0
  C  C299  1  0.78520000  0.58790000  0.15410000  1.0
  C  C300  1  0.89124000  0.39545000  0.34167000  1.0
  C  C301  1  0.67350000  0.40120000  0.47880000  1.0
  C  C302  1  0.57790000  0.60220000  0.30860000  1.0
  C  C303  1  0.63990000  0.64150000  0.30370000  1.0
  C  C304  1  0.71480000  0.62410000  0.15970000  1.0
  C  C305  1  0.77816000  0.40983000  0.32165000  1.0
  C  C306  1  0.99935000  0.37700000  0.31710000  1.0
  C  C307  1  0.09496000  0.36918000  0.37570000  1.0
  C  C308  1  0.63430000  0.66540000  0.33960000  1.0
  C  C309  1  0.72030000  0.71470000  0.29730000  1.0
  C  C310  1  0.10322000  0.36396000  0.33480000  1.0
  C  C311  1  0.68110000  0.70210000  0.33650000  1.0
  C  C312  1  0.77349000  0.76267000  0.48895000  1.0
  C  C313  1  0.81976000  0.90865000  0.46403000  1.0
  C  C314  1  0.77310000  0.71693000  0.49707000  1.0
  C  C315  1  0.73612000  0.95059000  0.46577000  1.0
  C  C316  1  0.71210000  0.69550000  0.47410000  1.0
  C  C317  1  0.84142000  0.69446000  0.52470000  1.0
  C  C318  1  0.71062000  0.97341000  0.50235000  1.0
  C  C319  1  0.69326000  0.96965000  0.43123000  1.0
  C  C320  1  0.72490000  0.65280000  0.47700000  1.0
  C  C321  1  0.90277000  0.71212000  0.55554000  1.0
  C  C322  1  0.64682000  0.01342000  0.50334000  1.0
  C  C323  1  0.70469000  0.94921000  0.39081000  1.0
  C  C324  1  0.80450000  0.63270000  0.50090000  1.0
  C  C325  1  0.84969000  0.74630000  0.58072000  1.0
  C  C326  1  0.19426000  0.87720000  0.51768000  1.0
  C  C327  1  0.42417000  0.76170000  0.42876000  1.0
  C  C328  1  0.61680000  0.88560000  0.41980000  1.0
  C  C329  1  0.61593000  0.03076000  0.46698000  1.0
  C  C330  1  0.67855000  0.90996000  0.38574000  1.0
  C  C331  1  0.91689000  0.75769000  0.60813000  1.0
  C  C332  1  0.72277000  0.77077000  0.57869000  1.0
  C  C333  1  0.07832000  0.70287000  0.58549000  1.0
  C  C334  1  0.14412000  0.91093000  0.54903000  1.0
  C  C335  1  0.38757000  0.72624000  0.40902000  1.0
  C  C336  1  0.69791000  0.89413000  0.34545000  1.0
  C  C337  1  0.75864000  0.95726000  0.32006000  1.0
  C  C338  1  0.03256000  0.73627000  0.61081000  1.0
  C  C339  1  0.19623000  0.91474000  0.58380000  1.0
  C  C340  1  0.04930000  0.94130000  0.54130000  1.0
  C  C341  1  0.35370000  0.72890000  0.37010000  1.0
  C  C342  1  0.39490000  0.68870000  0.43030000  1.0
  C  C343  1  0.74026000  0.91757000  0.31271000  1.0
  C  C344  1  0.29043000  0.88322000  0.60012000  1.0
  C  C345  1  0.00950000  0.97500000  0.56720000  1.0
  C  C346  1  0.35280000  0.76700000  0.34520000  1.0
  C  C347  1  0.37310000  0.65410000  0.41210000  1.0
  C  C348  1  0.28669000  0.84167000  0.60455000  1.0
  C  C349  1  0.07470000  0.97880000  0.59880000  1.0
  C  C350  1  0.18010000  0.80860000  0.39780000  1.0
  C  C351  1  0.28140000  0.80370000  0.35850000  1.0
  C  C352  1  0.33890000  0.65970000  0.37590000  1.0
  C  C353  1  0.18799000  0.82165000  0.59017000  1.0
  C  C354  1  0.37635000  0.81710000  0.62300000  1.0
  C  C355  1  0.46414000  0.87570000  0.63082000  1.0
  C  C356  1  0.29970000  0.83960000  0.33460000  1.0
  C  C357  1  0.43500000  0.79730000  0.28530000  1.0
  C  C358  1  0.46718000  0.83480000  0.63604000  1.0
  C  C359  1  0.38320000  0.83650000  0.29790000  1.0
  C  C360  1  0.52511000  0.73733000  0.01105000  1.0
  C  C361  1  0.69244000  0.59135000  0.03597000  1.0
  C  C362  1  0.48710000  0.78307000  0.00293000  1.0
  C  C363  1  0.65248000  0.54941000  0.03423000  1.0
  C  C364  1  0.38170000  0.80450000  0.02590000  1.0
  C  C365  1  0.56058000  0.80554000  0.97530000  1.0
  C  C366  1  0.68638000  0.52659000  0.99765000  1.0
  C  C367  1  0.59414000  0.53035000  0.06877000  1.0
  C  C368  1  0.35470000  0.84720000  0.02300000  1.0
  C  C369  1  0.67043000  0.78788000  0.94446000  1.0
  C  C370  1  0.66358000  0.48658000  0.99666000  1.0
  C  C371  1  0.54471000  0.55079000  0.10919000  1.0
  C  C372  1  0.43810000  0.86730000  0.99910000  1.0
  C  C373  1  0.67671000  0.75370000  0.91928000  1.0
  C  C374  1  0.08914000  0.62280000  0.98232000  1.0
  C  C375  1  0.11463000  0.73830000  0.07124000  1.0
  C  C376  1  0.42220000  0.61440000  0.08020000  1.0
  C  C377  1  0.61367000  0.46924000  0.03302000  1.0
  C  C378  1  0.47425000  0.59004000  0.11426000  1.0
  C  C379  1  0.78271000  0.74231000  0.89187000  1.0
  C  C380  1  0.57223000  0.72923000  0.92131000  1.0
  C  C381  1  0.86668000  0.79713000  0.91451000  1.0
  C  C382  1  0.10408000  0.58907000  0.95097000  1.0
  C  C383  1  0.02283000  0.77376000  0.09098000  1.0
  C  C384  1  0.43749000  0.60587000  0.15455000  1.0
  C  C385  1  0.53596000  0.54274000  0.17994000  1.0
  C  C386  1  0.87964000  0.76373000  0.88919000  1.0
  C  C387  1  0.19477000  0.58526000  0.91620000  1.0
  C  C388  1  0.03190000  0.55870000  0.95870000  1.0
  C  C389  1  0.95270000  0.77110000  0.12990000  1.0
  C  C390  1  0.01390000  0.81130000  0.06970000  1.0
  C  C391  1  0.47054000  0.58243000  0.18729000  1.0
  C  C392  1  0.27377000  0.61678000  0.89988000  1.0
  C  C393  1  0.05170000  0.52500000  0.93280000  1.0
  C  C394  1  0.96500000  0.73300000  0.15480000  1.0
  C  C395  1  0.93930000  0.84590000  0.08790000  1.0
  C  C396  1  0.23291000  0.65833000  0.89545000  1.0
  C  C397  1  0.15230000  0.52120000  0.90120000  1.0
  C  C398  1  0.88650000  0.69140000  0.10220000  1.0
  C  C399  1  0.94360000  0.69630000  0.14150000  1.0
  C  C400  1  0.87450000  0.84030000  0.12410000  1.0
  C  C401  1  0.09981000  0.67835000  0.90983000  1.0
  C  C402  1  0.31645000  0.68290000  0.87700000  1.0
  C  C403  1  0.47066000  0.62430000  0.86918000  1.0
  C  C404  1  0.97390000  0.66040000  0.16540000  1.0
  C  C405  1  0.01760000  0.70270000  0.21470000  1.0
  C  C406  1  0.43802000  0.66520000  0.86396000  1.0
  C  C407  1  0.01760000  0.66350000  0.20210000  1.0
  C  C408  1  0.46384000  0.01105000  0.76267000  1.0
  C  C409  1  0.27159000  0.03597000  0.90865000  1.0
  C  C410  1  0.50997000  0.00293000  0.71693000  1.0
  C  C411  1  0.31329000  0.03423000  0.95059000  1.0
  C  C412  1  0.59240000  0.02590000  0.69550000  1.0
  C  C413  1  0.46412000  0.97530000  0.69446000  1.0
  C  C414  1  0.31597000  0.99765000  0.97341000  1.0
  C  C415  1  0.33709000  0.06877000  0.96965000  1.0
  C  C416  1  0.62230000  0.02300000  0.65280000  1.0
  C  C417  1  0.38511000  0.94446000  0.71212000  1.0
  C  C418  1  0.33976000  0.99666000  0.01342000  1.0
  C  C419  1  0.34610000  0.10919000  0.94921000  1.0
  C  C420  1  0.56280000  0.99910000  0.63270000  1.0
  C  C421  1  0.40401000  0.91928000  0.74630000  1.0
  C  C422  1  0.92854000  0.98232000  0.87720000  1.0
  C  C423  1  0.81413000  0.07124000  0.76170000  1.0
  C  C424  1  0.49760000  0.08020000  0.88560000  1.0
  C  C425  1  0.35331000  0.03302000  0.03076000  1.0
  C  C426  1  0.41149000  0.11426000  0.90996000  1.0
  C  C427  1  0.32542000  0.89187000  0.75769000  1.0
  C  C428  1  0.50646000  0.92131000  0.77077000  1.0
  C  C429  1  0.21881000  0.91451000  0.70287000  1.0
  C  C430  1  0.94495000  0.95097000  0.91093000  1.0
  C  C431  1  0.88619000  0.09098000  0.72624000  1.0
  C  C432  1  0.40796000  0.15455000  0.89413000  1.0
  C  C433  1  0.28410000  0.17994000  0.95726000  1.0
  C  C434  1  0.23117000  0.88919000  0.73627000  1.0
  C  C435  1  0.88903000  0.91620000  0.91474000  1.0
  C  C436  1  0.00940000  0.95870000  0.94130000  1.0
  C  C437  1  0.91740000  0.12990000  0.72890000  1.0
  C  C438  1  0.91640000  0.06970000  0.68870000  1.0
  C  C439  1  0.34217000  0.18729000  0.91757000  1.0
  C  C440  1  0.82635000  0.89988000  0.88322000  1.0
  C  C441  1  0.01550000  0.93280000  0.97500000  1.0
  C  C442  1  0.88020000  0.15480000  0.76700000  1.0
  C  C443  1  0.97280000  0.08790000  0.65410000  1.0
  C  C444  1  0.87164000  0.89545000  0.84167000  1.0
  C  C445  1  0.94650000  0.90120000  0.97880000  1.0
  C  C446  1  0.01130000  0.10220000  0.80860000  1.0
  C  C447  1  0.91490000  0.14150000  0.80370000  1.0
  C  C448  1  0.00140000  0.12410000  0.65970000  1.0
  C  C449  1  0.99036000  0.90983000  0.82165000  1.0
  C  C450  1  0.80655000  0.87700000  0.81710000  1.0
  C  C451  1  0.66016000  0.86918000  0.87570000  1.0
  C  C452  1  0.86070000  0.16540000  0.83960000  1.0
  C  C453  1  0.76770000  0.21470000  0.79730000  1.0
  C  C454  1  0.69802000  0.86396000  0.83480000  1.0
  C  C455  1  0.78030000  0.20210000  0.83650000  1.0
  C  C456  1  0.73756000  0.48895000  0.73733000  1.0
  C  C457  1  0.71621000  0.46403000  0.59135000  1.0
  C  C458  1  0.72983000  0.49707000  0.78307000  1.0
  C  C459  1  0.79811000  0.46577000  0.54941000  1.0
  C  C460  1  0.81380000  0.47410000  0.80450000  1.0
  C  C461  1  0.63388000  0.52470000  0.80554000  1.0
  C  C462  1  0.78703000  0.50235000  0.52659000  1.0
  C  C463  1  0.87551000  0.43123000  0.53035000  1.0
  C  C464  1  0.79810000  0.47700000  0.84720000  1.0
  C  C465  1  0.54169000  0.55554000  0.78788000  1.0
  C  C466  1  0.84984000  0.50334000  0.48658000  1.0
  C  C467  1  0.90450000  0.39081000  0.55079000  1.0
  C  C468  1  0.69460000  0.50090000  0.86730000  1.0
  C  C469  1  0.56959000  0.58072000  0.75370000  1.0
  C  C470  1  0.28806000  0.51768000  0.62280000  1.0
  C  C471  1  0.14707000  0.42876000  0.73830000  1.0
  C  C472  1  0.96340000  0.41980000  0.61440000  1.0
  C  C473  1  0.91709000  0.46698000  0.46924000  1.0
  C  C474  1  0.93571000  0.38574000  0.59004000  1.0
  C  C475  1  0.47498000  0.60813000  0.74231000  1.0
  C  C476  1  0.69854000  0.57869000  0.72923000  1.0
  C  C477  1  0.33619000  0.58549000  0.79713000  1.0
  C  C478  1  0.30685000  0.54903000  0.58907000  1.0
  C  C479  1  0.20341000  0.40902000  0.77376000  1.0
  C  C480  1  0.95664000  0.34545000  0.60587000  1.0
  C  C481  1  0.92130000  0.32006000  0.54274000  1.0
  C  C482  1  0.35663000  0.61081000  0.76373000  1.0
  C  C483  1  0.21997000  0.58380000  0.58526000  1.0
  C  C484  1  0.40940000  0.54130000  0.55870000  1.0
  C  C485  1  0.27620000  0.37010000  0.77110000  1.0
  C  C486  1  0.17480000  0.43030000  0.81130000  1.0
  C  C487  1  0.94703000  0.31271000  0.58243000  1.0
  C  C488  1  0.10945000  0.60012000  0.61678000  1.0
  C  C489  1  0.42330000  0.56720000  0.52500000  1.0
  C  C490  1  0.30200000  0.34520000  0.73300000  1.0
  C  C491  1  0.21480000  0.41210000  0.84590000  1.0
  C  C492  1  0.10876000  0.60455000  0.65833000  1.0
  C  C493  1  0.32650000  0.59880000  0.52120000  1.0
  C  C494  1  0.42210000  0.39780000  0.69140000  1.0
  C  C495  1  0.36010000  0.35850000  0.69630000  1.0
  C  C496  1  0.28520000  0.37590000  0.84030000  1.0
  C  C497  1  0.22184000  0.59017000  0.67835000  1.0
  C  C498  1  0.00065000  0.62300000  0.68290000  1.0
  C  C499  1  0.90504000  0.63082000  0.62430000  1.0
  C  C500  1  0.36570000  0.33460000  0.66040000  1.0
  C  C501  1  0.27970000  0.28530000  0.70270000  1.0
  C  C502  1  0.89678000  0.63604000  0.66520000  1.0
  C  C503  1  0.31890000  0.29790000  0.66350000  1.0
  C  C504  1  0.22651000  0.23733000  0.51105000  1.0
  C  C505  1  0.18024000  0.09135000  0.53597000  1.0
  C  C506  1  0.22690000  0.28307000  0.50293000  1.0
  C  C507  1  0.26388000  0.04941000  0.53423000  1.0
  C  C508  1  0.28790000  0.30450000  0.52590000  1.0
  C  C509  1  0.15858000  0.30554000  0.47530000  1.0
  C  C510  1  0.28938000  0.02659000  0.49765000  1.0
  C  C511  1  0.30674000  0.03035000  0.56877000  1.0
  C  C512  1  0.27510000  0.34720000  0.52300000  1.0
  C  C513  1  0.09723000  0.28788000  0.44446000  1.0
  C  C514  1  0.35318000  0.98658000  0.49666000  1.0
  C  C515  1  0.29531000  0.05079000  0.60919000  1.0
  C  C516  1  0.19550000  0.36730000  0.49910000  1.0
  C  C517  1  0.15031000  0.25370000  0.41928000  1.0
  C  C518  1  0.80574000  0.12280000  0.48232000  1.0
  C  C519  1  0.57583000  0.23830000  0.57124000  1.0
  C  C520  1  0.38320000  0.11440000  0.58020000  1.0
  C  C521  1  0.38407000  0.96924000  0.53302000  1.0
  C  C522  1  0.32145000  0.09004000  0.61426000  1.0
  C  C523  1  0.08311000  0.24231000  0.39187000  1.0
  C  C524  1  0.27723000  0.22923000  0.42131000  1.0
  C  C525  1  0.92168000  0.29713000  0.41451000  1.0
  C  C526  1  0.85588000  0.08907000  0.45097000  1.0
  C  C527  1  0.61243000  0.27376000  0.59098000  1.0
  C  C528  1  0.30209000  0.10587000  0.65455000  1.0
  C  C529  1  0.24136000  0.04274000  0.67994000  1.0
  C  C530  1  0.96744000  0.26373000  0.38919000  1.0
  C  C531  1  0.80377000  0.08526000  0.41620000  1.0
  C  C532  1  0.95070000  0.05870000  0.45870000  1.0
  C  C533  1  0.64630000  0.27110000  0.62990000  1.0
  C  C534  1  0.60510000  0.31130000  0.56970000  1.0
  C  C535  1  0.25974000  0.08243000  0.68729000  1.0
  C  C536  1  0.70957000  0.11678000  0.39988000  1.0
  C  C537  1  0.99050000  0.02500000  0.43280000  1.0
  C  C538  1  0.64720000  0.23300000  0.65480000  1.0
  C  C539  1  0.62690000  0.34590000  0.58790000  1.0
  C  C540  1  0.71331000  0.15833000  0.39545000  1.0
  C  C541  1  0.92530000  0.02120000  0.40120000  1.0
  C  C542  1  0.81990000  0.19140000  0.60220000  1.0
  C  C543  1  0.71860000  0.19630000  0.64150000  1.0
  C  C544  1  0.66110000  0.34030000  0.62410000  1.0
  C  C545  1  0.81201000  0.17835000  0.40983000  1.0
  C  C546  1  0.62365000  0.18290000  0.37700000  1.0
  C  C547  1  0.53586000  0.12430000  0.36918000  1.0
  C  C548  1  0.70030000  0.16040000  0.66540000  1.0
  C  C549  1  0.56500000  0.20270000  0.71470000  1.0
  C  C550  1  0.53282000  0.16520000  0.36396000  1.0
  C  C551  1  0.61680000  0.16350000  0.70210000  1.0
  C  C552  1  0.47489000  0.26267000  0.98895000  1.0
  C  C553  1  0.30756000  0.40865000  0.96403000  1.0
  C  C554  1  0.51290000  0.21693000  0.99707000  1.0
  C  C555  1  0.34752000  0.45059000  0.96577000  1.0
  C  C556  1  0.61830000  0.19550000  0.97410000  1.0
  C  C557  1  0.43942000  0.19446000  0.02470000  1.0
  C  C558  1  0.31362000  0.47341000  0.00235000  1.0
  C  C559  1  0.40586000  0.46965000  0.93123000  1.0
  C  C560  1  0.64530000  0.15280000  0.97700000  1.0
  C  C561  1  0.32957000  0.21212000  0.05554000  1.0
  C  C562  1  0.33642000  0.51342000  0.00334000  1.0
  C  C563  1  0.45529000  0.44921000  0.89081000  1.0
  C  C564  1  0.56190000  0.13270000  0.00090000  1.0
  C  C565  1  0.32329000  0.24630000  0.08072000  1.0
  C  C566  1  0.91086000  0.37720000  0.01768000  1.0
  C  C567  1  0.88537000  0.26170000  0.92876000  1.0
  C  C568  1  0.57780000  0.38560000  0.91980000  1.0
  C  C569  1  0.38633000  0.53076000  0.96698000  1.0
  C  C570  1  0.52575000  0.40996000  0.88574000  1.0
  C  C571  1  0.21729000  0.25769000  0.10813000  1.0
  C  C572  1  0.42777000  0.27077000  0.07869000  1.0
  C  C573  1  0.13332000  0.20287000  0.08549000  1.0
  C  C574  1  0.89592000  0.41093000  0.04903000  1.0
  C  C575  1  0.97717000  0.22624000  0.90902000  1.0
  C  C576  1  0.56251000  0.39413000  0.84545000  1.0
  C  C577  1  0.46404000  0.45726000  0.82006000  1.0
  C  C578  1  0.12036000  0.23627000  0.11081000  1.0
  C  C579  1  0.80523000  0.41474000  0.08380000  1.0
  C  C580  1  0.96810000  0.44130000  0.04130000  1.0
  C  C581  1  0.04730000  0.22890000  0.87010000  1.0
  C  C582  1  0.98610000  0.18870000  0.93030000  1.0
  C  C583  1  0.52946000  0.41757000  0.81271000  1.0
  C  C584  1  0.72623000  0.38322000  0.10012000  1.0
  C  C585  1  0.94830000  0.47500000  0.06720000  1.0
  C  C586  1  0.03500000  0.26700000  0.84520000  1.0
  C  C587  1  0.06070000  0.15410000  0.91210000  1.0
  C  C588  1  0.76709000  0.34167000  0.10455000  1.0
  C  C589  1  0.84770000  0.47880000  0.09880000  1.0
  C  C590  1  0.11350000  0.30860000  0.89780000  1.0
  C  C591  1  0.05640000  0.30370000  0.85850000  1.0
  C  C592  1  0.12550000  0.15970000  0.87590000  1.0
  C  C593  1  0.90019000  0.32165000  0.09017000  1.0
  C  C594  1  0.68355000  0.31710000  0.12300000  1.0
  C  C595  1  0.52934000  0.37570000  0.13082000  1.0
  C  C596  1  0.02610000  0.33960000  0.83460000  1.0
  C  C597  1  0.98240000  0.29730000  0.78530000  1.0
  C  C598  1  0.56198000  0.33480000  0.13604000  1.0
  C  C599  1  0.98240000  0.33650000  0.79790000  1.0
  N  N600  1  0.51406000  0.02485000  0.34743000  1.0
  N  N601  1  0.64847000  0.93153000  0.99033000  1.0
  N  N602  1  0.70553000  0.05819000  0.30935000  1.0
  N  N603  1  0.71377000  0.85794000  0.02732000  1.0
  N  N604  1  0.72171000  0.88631000  0.90027000  1.0
  N  N605  1  0.88425000  0.89291000  0.94939000  1.0
  N  N606  1  0.02090000  0.85252000  0.30488000  1.0
  N  N607  1  0.18630000  0.80740000  0.23680000  1.0
  N  N608  1  0.38634000  0.47515000  0.15257000  1.0
  N  N609  1  0.07033000  0.56847000  0.50967000  1.0
  N  N610  1  0.57307000  0.44181000  0.19065000  1.0
  N  N611  1  0.09903000  0.64206000  0.47268000  1.0
  N  N612  1  0.00829000  0.61369000  0.59973000  1.0
  N  N613  1  0.22655000  0.60709000  0.55061000  1.0
  N  N614  1  0.67830000  0.64748000  0.19512000  1.0
  N  N615  1  0.73050000  0.69260000  0.26320000  1.0
  N  N616  1  0.86149000  0.65257000  0.52485000  1.0
  N  N617  1  0.63880000  0.00967000  0.43153000  1.0
  N  N618  1  0.01488000  0.69065000  0.55819000  1.0
  N  N619  1  0.74109000  0.97268000  0.35794000  1.0
  N  N620  1  0.62198000  0.09973000  0.38631000  1.0
  N  N621  1  0.83364000  0.05061000  0.39291000  1.0
  N  N622  1  0.32578000  0.69512000  0.35252000  1.0
  N  N623  1  0.42310000  0.76320000  0.30740000  1.0
  N  N624  1  0.53891000  0.84743000  0.97515000  1.0
  N  N625  1  0.58000000  0.49033000  0.06847000  1.0
  N  N626  1  0.76372000  0.80935000  0.94181000  1.0
  N  N627  1  0.57171000  0.52732000  0.14206000  1.0
  N  N628  1  0.60802000  0.40027000  0.11369000  1.0
  N  N629  1  0.77716000  0.44939000  0.10709000  1.0
  N  N630  1  0.87342000  0.80488000  0.14748000  1.0
  N  N631  1  0.99370000  0.73680000  0.19260000  1.0
  N  N632  1  0.48594000  0.97515000  0.65257000  1.0
  N  N633  1  0.35153000  0.06847000  0.00967000  1.0
  N  N634  1  0.29447000  0.94181000  0.69065000  1.0
  N  N635  1  0.28623000  0.14206000  0.97268000  1.0
  N  N636  1  0.27829000  0.11369000  0.09973000  1.0
  N  N637  1  0.11575000  0.10709000  0.05061000  1.0
  N  N638  1  0.97910000  0.14748000  0.69512000  1.0
  N  N639  1  0.81370000  0.19260000  0.76320000  1.0
  N  N640  1  0.61366000  0.52485000  0.84743000  1.0
  N  N641  1  0.92967000  0.43153000  0.49033000  1.0
  N  N642  1  0.42693000  0.55819000  0.80935000  1.0
  N  N643  1  0.90097000  0.35794000  0.52732000  1.0
  N  N644  1  0.99171000  0.38631000  0.40027000  1.0
  N  N645  1  0.77345000  0.39291000  0.44939000  1.0
  N  N646  1  0.32170000  0.35252000  0.80488000  1.0
  N  N647  1  0.26950000  0.30740000  0.73680000  1.0
  N  N648  1  0.13851000  0.34743000  0.47515000  1.0
  N  N649  1  0.36120000  0.99033000  0.56847000  1.0
  N  N650  1  0.98512000  0.30935000  0.44181000  1.0
  N  N651  1  0.25891000  0.02732000  0.64206000  1.0
  N  N652  1  0.37802000  0.90027000  0.61369000  1.0
  N  N653  1  0.16636000  0.94939000  0.60709000  1.0
  N  N654  1  0.67422000  0.30488000  0.64748000  1.0
  N  N655  1  0.57690000  0.23680000  0.69260000  1.0
  N  N656  1  0.46109000  0.15257000  0.02485000  1.0
  N  N657  1  0.42000000  0.50967000  0.93153000  1.0
  N  N658  1  0.23628000  0.19065000  0.05819000  1.0
  N  N659  1  0.42829000  0.47268000  0.85794000  1.0
  N  N660  1  0.39198000  0.59973000  0.88631000  1.0
  N  N661  1  0.22284000  0.55061000  0.89291000  1.0
  N  N662  1  0.12658000  0.19512000  0.85252000  1.0
  N  N663  1  0.00630000  0.26320000  0.80740000  1.0
  O  O664  1  0.64547000  0.99309000  0.22497000  1.0
  O  O665  1  0.66324000  0.98575000  0.12057000  1.0
  O  O666  1  0.83072000  0.94309000  0.09407000  1.0
  O  O667  1  0.98874000  0.99578000  0.13234000  1.0
  O  O668  1  0.99396000  0.91234000  0.15654000  1.0
  O  O669  1  0.90624000  0.91063000  0.22109000  1.0
  O  O670  1  0.46469000  0.97737000  0.21685000  1.0
  O  O671  1  0.16923000  0.01424000  0.13730000  1.0
  O  O672  1  0.13188000  0.96023000  0.22161000  1.0
  O  O673  1  0.29521000  0.91460000  0.22638000  1.0
  O  O674  1  0.44479000  0.94878000  0.09664000  1.0
  O  O675  1  0.48597000  0.91617000  0.15369000  1.0
  O  O676  1  0.38712000  0.07846000  0.24930000  1.0
  O  O677  1  0.52325000  0.07715000  0.19095000  1.0
  O  O678  1  0.01324000  0.07047000  0.21145000  1.0
  O  O679  1  0.91805000  0.09930000  0.16080000  1.0
  O  O680  1  0.36353000  0.50691000  0.27503000  1.0
  O  O681  1  0.26956000  0.51425000  0.37943000  1.0
  O  O682  1  0.36788000  0.55691000  0.40593000  1.0
  O  O683  1  0.61686000  0.50422000  0.36766000  1.0
  O  O684  1  0.56284000  0.58766000  0.34346000  1.0
  O  O685  1  0.53796000  0.58937000  0.27891000  1.0
  O  O686  1  0.15891000  0.52263000  0.28315000  1.0
  O  O687  1  0.82077000  0.48576000  0.36270000  1.0
  O  O688  1  0.81372000  0.53977000  0.27839000  1.0
  O  O689  1  0.93619000  0.58540000  0.27362000  1.0
  O  O690  1  0.99021000  0.55122000  0.40336000  1.0
  O  O691  1  0.05583000  0.58383000  0.34631000  1.0
  O  O692  1  0.21488000  0.42154000  0.25070000  1.0
  O  O693  1  0.29135000  0.42285000  0.30905000  1.0
  O  O694  1  0.79516000  0.42953000  0.28855000  1.0
  O  O695  1  0.67815000  0.40070000  0.33920000  1.0
  O  O696  1  0.87044000  0.77503000  0.49309000  1.0
  O  O697  1  0.78381000  0.87943000  0.48575000  1.0
  O  O698  1  0.92479000  0.90593000  0.44309000  1.0
  O  O699  1  0.12108000  0.86766000  0.49578000  1.0
  O  O700  1  0.15050000  0.84346000  0.41234000  1.0
  O  O701  1  0.12733000  0.77891000  0.41063000  1.0
  O  O702  1  0.68154000  0.78315000  0.47737000  1.0
  O  O703  1  0.30653000  0.86270000  0.51424000  1.0
  O  O704  1  0.35349000  0.77839000  0.46023000  1.0
  O  O705  1  0.52159000  0.77362000  0.41460000  1.0
  O  O706  1  0.54143000  0.90336000  0.44878000  1.0
  O  O707  1  0.63966000  0.84631000  0.41617000  1.0
  O  O708  1  0.63642000  0.75070000  0.57846000  1.0
  O  O709  1  0.71420000  0.80905000  0.57715000  1.0
  O  O710  1  0.22469000  0.78855000  0.57047000  1.0
  O  O711  1  0.07885000  0.83920000  0.59930000  1.0
  O  O712  1  0.63856000  0.72497000  0.00691000  1.0
  O  O713  1  0.64899000  0.62057000  0.01425000  1.0
  O  O714  1  0.77381000  0.59407000  0.05691000  1.0
  O  O715  1  0.98452000  0.63234000  0.00422000  1.0
  O  O716  1  0.90630000  0.65654000  0.08766000  1.0
  O  O717  1  0.81687000  0.72109000  0.08937000  1.0
  O  O718  1  0.44206000  0.71685000  0.02263000  1.0
  O  O719  1  0.18347000  0.63730000  0.98576000  1.0
  O  O720  1  0.09211000  0.72161000  0.03977000  1.0
  O  O721  1  0.20981000  0.72638000  0.08540000  1.0
  O  O722  1  0.39357000  0.59664000  0.05122000  1.0
  O  O723  1  0.40214000  0.65369000  0.08383000  1.0
  O  O724  1  0.46558000  0.74930000  0.92154000  1.0
  O  O725  1  0.60040000  0.69095000  0.92285000  1.0
  O  O726  1  0.08371000  0.71145000  0.92953000  1.0
  O  O727  1  0.01735000  0.66080000  0.90070000  1.0
  O  O728  1  0.35453000  0.00691000  0.77503000  1.0
  O  O729  1  0.33676000  0.01425000  0.87943000  1.0
  O  O730  1  0.16928000  0.05691000  0.90593000  1.0
  O  O731  1  0.01126000  0.00422000  0.86766000  1.0
  O  O732  1  0.00604000  0.08766000  0.84346000  1.0
  O  O733  1  0.09376000  0.08937000  0.77891000  1.0
  O  O734  1  0.53531000  0.02263000  0.78315000  1.0
  O  O735  1  0.83077000  0.98576000  0.86270000  1.0
  O  O736  1  0.86812000  0.03977000  0.77839000  1.0
  O  O737  1  0.70479000  0.08540000  0.77362000  1.0
  O  O738  1  0.55521000  0.05122000  0.90336000  1.0
  O  O739  1  0.51403000  0.08383000  0.84631000  1.0
  O  O740  1  0.61288000  0.92154000  0.75070000  1.0
  O  O741  1  0.47675000  0.92285000  0.80905000  1.0
  O  O742  1  0.98676000  0.92953000  0.78855000  1.0
  O  O743  1  0.08195000  0.90070000  0.83920000  1.0
  O  O744  1  0.63647000  0.49309000  0.72497000  1.0
  O  O745  1  0.73044000  0.48575000  0.62057000  1.0
  O  O746  1  0.63212000  0.44309000  0.59407000  1.0
  O  O747  1  0.38314000  0.49578000  0.63234000  1.0
  O  O748  1  0.43716000  0.41234000  0.65654000  1.0
  O  O749  1  0.46204000  0.41063000  0.72109000  1.0
  O  O750  1  0.84109000  0.47737000  0.71685000  1.0
  O  O751  1  0.17923000  0.51424000  0.63730000  1.0
  O  O752  1  0.18628000  0.46023000  0.72161000  1.0
  O  O753  1  0.06381000  0.41460000  0.72638000  1.0
  O  O754  1  0.00979000  0.44878000  0.59664000  1.0
  O  O755  1  0.94417000  0.41617000  0.65369000  1.0
  O  O756  1  0.78512000  0.57846000  0.74930000  1.0
  O  O757  1  0.70865000  0.57715000  0.69095000  1.0
  O  O758  1  0.20484000  0.57047000  0.71145000  1.0
  O  O759  1  0.32185000  0.59930000  0.66080000  1.0
  O  O760  1  0.12956000  0.22497000  0.50691000  1.0
  O  O761  1  0.21619000  0.12057000  0.51425000  1.0
  O  O762  1  0.07521000  0.09407000  0.55691000  1.0
  O  O763  1  0.87892000  0.13234000  0.50422000  1.0
  O  O764  1  0.84950000  0.15654000  0.58766000  1.0
  O  O765  1  0.87267000  0.22109000  0.58937000  1.0
  O  O766  1  0.31846000  0.21685000  0.52263000  1.0
  O  O767  1  0.69347000  0.13730000  0.48576000  1.0
  O  O768  1  0.64651000  0.22161000  0.53977000  1.0
  O  O769  1  0.47841000  0.22638000  0.58540000  1.0
  O  O770  1  0.45857000  0.09664000  0.55122000  1.0
  O  O771  1  0.36034000  0.15369000  0.58383000  1.0
  O  O772  1  0.36358000  0.24930000  0.42154000  1.0
  O  O773  1  0.28580000  0.19095000  0.42285000  1.0
  O  O774  1  0.77531000  0.21145000  0.42953000  1.0
  O  O775  1  0.92115000  0.16080000  0.40070000  1.0
  O  O776  1  0.36144000  0.27503000  0.99309000  1.0
  O  O777  1  0.35101000  0.37943000  0.98575000  1.0
  O  O778  1  0.22619000  0.40593000  0.94309000  1.0
  O  O779  1  0.01548000  0.36766000  0.99578000  1.0
  O  O780  1  0.09370000  0.34346000  0.91234000  1.0
  O  O781  1  0.18313000  0.27891000  0.91063000  1.0
  O  O782  1  0.55794000  0.28315000  0.97737000  1.0
  O  O783  1  0.81653000  0.36270000  0.01424000  1.0
  O  O784  1  0.90789000  0.27839000  0.96023000  1.0
  O  O785  1  0.79019000  0.27362000  0.91460000  1.0
  O  O786  1  0.60643000  0.40336000  0.94878000  1.0
  O  O787  1  0.59786000  0.34631000  0.91617000  1.0
  O  O788  1  0.53442000  0.25070000  0.07846000  1.0
  O  O789  1  0.39960000  0.30905000  0.07715000  1.0
  O  O790  1  0.91629000  0.28855000  0.07047000  1.0
  O  O791  1  0.98265000  0.33920000  0.09930000  1.0
