# generated using pymatgen
data_Eu2CoH24C48(NO2)8
_symmetry_space_group_name_H-M   'P 1'
_cell_length_a   11.10610000
_cell_length_b   32.91230000
_cell_length_c   32.91230000
_cell_angle_alpha   88.36870000
_cell_angle_beta   80.28640000
_cell_angle_gamma   80.28640000
_symmetry_Int_Tables_number   1
_chemical_formula_structural   Eu2CoH24C48(NO2)8
_chemical_formula_sum   'Eu16 Co8 H192 C384 N64 O128'
_cell_volume   11687.86936233
_cell_formula_units_Z   8
loop_
 _symmetry_equiv_pos_site_id
 _symmetry_equiv_pos_as_xyz
  1  'x, y, z'
loop_
 _atom_site_type_symbol
 _atom_site_label
 _atom_site_symmetry_multiplicity
 _atom_site_fract_x
 _atom_site_fract_y
 _atom_site_fract_z
 _atom_site_occupancy
  Eu  Eu0  1  0.21288000  0.32874000  0.97210000  1.0
  Eu  Eu1  1  0.71145000  0.32609000  0.97443000  1.0
  Eu  Eu2  1  0.01372000  0.17126000  0.52790000  1.0
  Eu  Eu3  1  0.51197000  0.17391000  0.52557000  1.0
  Eu  Eu4  1  0.18498000  0.02790000  0.82874000  1.0
  Eu  Eu5  1  0.68588000  0.02557000  0.82609000  1.0
  Eu  Eu6  1  0.54163000  0.47209000  0.67126000  1.0
  Eu  Eu7  1  0.03754000  0.47443000  0.67391000  1.0
  Eu  Eu8  1  0.78712000  0.67126000  0.02790000  1.0
  Eu  Eu9  1  0.28855000  0.67391000  0.02557000  1.0
  Eu  Eu10  1  0.98628000  0.82874000  0.47210000  1.0
  Eu  Eu11  1  0.48803000  0.82609000  0.47443000  1.0
  Eu  Eu12  1  0.81502000  0.97210000  0.17126000  1.0
  Eu  Eu13  1  0.31412000  0.97443000  0.17391000  1.0
  Eu  Eu14  1  0.45838000  0.52790000  0.32874000  1.0
  Eu  Eu15  1  0.96246000  0.52557000  0.32609000  1.0
  Co  Co16  1  0.41824000  0.53614000  0.87130000  1.0
  Co  Co17  1  0.32568000  0.96386000  0.62870000  1.0
  Co  Co18  1  0.28954000  0.12870000  0.03614000  1.0
  Co  Co19  1  0.95438000  0.37130000  0.46386000  1.0
  Co  Co20  1  0.58176000  0.46386000  0.12870000  1.0
  Co  Co21  1  0.67432000  0.03614000  0.37130000  1.0
  Co  Co22  1  0.71046000  0.87130000  0.96386000  1.0
  Co  Co23  1  0.04562000  0.62870000  0.53614000  1.0
  H  H24  1  0.60780000  0.36690000  0.84330000  1.0
  H  H25  1  0.55510000  0.40580000  0.78740000  1.0
  H  H26  1  0.44700000  0.47230000  0.79870000  1.0
  H  H27  1  0.39650000  0.55800000  0.96800000  1.0
  H  H28  1  0.31310000  0.52800000  0.02800000  1.0
  H  H29  1  0.27440000  0.46140000  0.02680000  1.0
  H  H30  1  0.03340000  0.43810000  0.01770000  1.0
  H  H31  1  0.00240000  0.49500000  0.06200000  1.0
  H  H32  1  0.82980000  0.50290000  0.11310000  1.0
  H  H33  1  0.44390000  0.38850000  0.13910000  1.0
  H  H34  1  0.50140000  0.31950000  0.14850000  1.0
  H  H35  1  0.70800000  0.28980000  0.12740000  1.0
  H  H36  1  0.67370000  0.21010000  0.95570000  1.0
  H  H37  1  0.72360000  0.13970000  0.96170000  1.0
  H  H38  1  0.58100000  0.10450000  0.00010000  1.0
  H  H39  1  0.06780000  0.18750000  0.08670000  1.0
  H  H40  1  0.04600000  0.24320000  0.12900000  1.0
  H  H41  1  0.20980000  0.27950000  0.12490000  1.0
  H  H42  1  0.93570000  0.18710000  0.95770000  1.0
  H  H43  1  0.04860000  0.12710000  0.92810000  1.0
  H  H44  1  0.17260000  0.13440000  0.87100000  1.0
  H  H45  1  0.96530000  0.29620000  0.76080000  1.0
  H  H46  1  0.94230000  0.36180000  0.78760000  1.0
  H  H47  1  0.03520000  0.36430000  0.84690000  1.0
  H  H48  1  0.31800000  0.13310000  0.65670000  1.0
  H  H49  1  0.24830000  0.09420000  0.71260000  1.0
  H  H50  1  0.21800000  0.02770000  0.70130000  1.0
  H  H51  1  0.42250000  0.94200000  0.53200000  1.0
  H  H52  1  0.36910000  0.97200000  0.47200000  1.0
  H  H53  1  0.26260000  0.03860000  0.47320000  1.0
  H  H54  1  0.98920000  0.06190000  0.48230000  1.0
  H  H55  1  0.05940000  0.00500000  0.43800000  1.0
  H  H56  1  0.94580000  0.99710000  0.38690000  1.0
  H  H57  1  0.47150000  0.11150000  0.36090000  1.0
  H  H58  1  0.46940000  0.18050000  0.35150000  1.0
  H  H59  1  0.62520000  0.21020000  0.37260000  1.0
  H  H60  1  0.33950000  0.28990000  0.54430000  1.0
  H  H61  1  0.32500000  0.36030000  0.53830000  1.0
  H  H62  1  0.18560000  0.39550000  0.49990000  1.0
  H  H63  1  0.84200000  0.31250000  0.41330000  1.0
  H  H64  1  0.91820000  0.25680000  0.37100000  1.0
  H  H65  1  0.11420000  0.22050000  0.37510000  1.0
  H  H66  1  0.58050000  0.31290000  0.54230000  1.0
  H  H67  1  0.60380000  0.37290000  0.57190000  1.0
  H  H68  1  0.67800000  0.36560000  0.62900000  1.0
  H  H69  1  0.52230000  0.20380000  0.73920000  1.0
  H  H70  1  0.59170000  0.13820000  0.71240000  1.0
  H  H71  1  0.74640000  0.13570000  0.65310000  1.0
  H  H72  1  0.45110000  0.15670000  0.86690000  1.0
  H  H73  1  0.34250000  0.21260000  0.90580000  1.0
  H  H74  1  0.24570000  0.20130000  0.97230000  1.0
  H  H75  1  0.36450000  0.03200000  0.05800000  1.0
  H  H76  1  0.34110000  0.97200000  0.02800000  1.0
  H  H77  1  0.30120000  0.97320000  0.96140000  1.0
  H  H78  1  0.05110000  0.98230000  0.93810000  1.0
  H  H79  1  0.06440000  0.93800000  0.99500000  1.0
  H  H80  1  0.94290000  0.88690000  0.00290000  1.0
  H  H81  1  0.58300000  0.86090000  0.88850000  1.0
  H  H82  1  0.64990000  0.85150000  0.81950000  1.0
  H  H83  1  0.83540000  0.87260000  0.78980000  1.0
  H  H84  1  0.62940000  0.04430000  0.71010000  1.0
  H  H85  1  0.68530000  0.03830000  0.63970000  1.0
  H  H86  1  0.58110000  0.99990000  0.60450000  1.0
  H  H87  1  0.15450000  0.91330000  0.68750000  1.0
  H  H88  1  0.17500000  0.87100000  0.74320000  1.0
  H  H89  1  0.33470000  0.87510000  0.77950000  1.0
  H  H90  1  0.89340000  0.04230000  0.68710000  1.0
  H  H91  1  0.97670000  0.07190000  0.62710000  1.0
  H  H92  1  0.04360000  0.12900000  0.63440000  1.0
  H  H93  1  0.72610000  0.23920000  0.79620000  1.0
  H  H94  1  0.72990000  0.21240000  0.86180000  1.0
  H  H95  1  0.88210000  0.15310000  0.86430000  1.0
  H  H96  1  0.97470000  0.34330000  0.63310000  1.0
  H  H97  1  0.96090000  0.28740000  0.59420000  1.0
  H  H98  1  0.91930000  0.29870000  0.52770000  1.0
  H  H99  1  0.95450000  0.46800000  0.44200000  1.0
  H  H100  1  0.84110000  0.52800000  0.47200000  1.0
  H  H101  1  0.73580000  0.52680000  0.53860000  1.0
  H  H102  1  0.47150000  0.51770000  0.56190000  1.0
  H  H103  1  0.49740000  0.56200000  0.50500000  1.0
  H  H104  1  0.33270000  0.61310000  0.49710000  1.0
  H  H105  1  0.83240000  0.63910000  0.61150000  1.0
  H  H106  1  0.82090000  0.64850000  0.68050000  1.0
  H  H107  1  0.99780000  0.62740000  0.71020000  1.0
  H  H108  1  0.88380000  0.45570000  0.78990000  1.0
  H  H109  1  0.86330000  0.46170000  0.86030000  1.0
  H  H110  1  0.68550000  0.50010000  0.89550000  1.0
  H  H111  1  0.25530000  0.58670000  0.81250000  1.0
  H  H112  1  0.28920000  0.62900000  0.75680000  1.0
  H  H113  1  0.48930000  0.62490000  0.72050000  1.0
  H  H114  1  0.12280000  0.45770000  0.81290000  1.0
  H  H115  1  0.17570000  0.42810000  0.87290000  1.0
  H  H116  1  0.30700000  0.37100000  0.86560000  1.0
  H  H117  1  0.26150000  0.26080000  0.70380000  1.0
  H  H118  1  0.30410000  0.28760000  0.63820000  1.0
  H  H119  1  0.39950000  0.34690000  0.63570000  1.0
  H  H120  1  0.39220000  0.63310000  0.15670000  1.0
  H  H121  1  0.44490000  0.59420000  0.21260000  1.0
  H  H122  1  0.55300000  0.52770000  0.20130000  1.0
  H  H123  1  0.60350000  0.44200000  0.03200000  1.0
  H  H124  1  0.68690000  0.47200000  0.97200000  1.0
  H  H125  1  0.72560000  0.53860000  0.97320000  1.0
  H  H126  1  0.96660000  0.56190000  0.98230000  1.0
  H  H127  1  0.99760000  0.50500000  0.93800000  1.0
  H  H128  1  0.17020000  0.49710000  0.88690000  1.0
  H  H129  1  0.55610000  0.61150000  0.86090000  1.0
  H  H130  1  0.49860000  0.68050000  0.85150000  1.0
  H  H131  1  0.29200000  0.71020000  0.87260000  1.0
  H  H132  1  0.32630000  0.78990000  0.04430000  1.0
  H  H133  1  0.27640000  0.86030000  0.03830000  1.0
  H  H134  1  0.41900000  0.89550000  0.99990000  1.0
  H  H135  1  0.93220000  0.81250000  0.91330000  1.0
  H  H136  1  0.95400000  0.75680000  0.87100000  1.0
  H  H137  1  0.79020000  0.72050000  0.87510000  1.0
  H  H138  1  0.06430000  0.81290000  0.04230000  1.0
  H  H139  1  0.95140000  0.87290000  0.07190000  1.0
  H  H140  1  0.82740000  0.86560000  0.12900000  1.0
  H  H141  1  0.03470000  0.70380000  0.23920000  1.0
  H  H142  1  0.05770000  0.63820000  0.21240000  1.0
  H  H143  1  0.96480000  0.63570000  0.15310000  1.0
  H  H144  1  0.68200000  0.86690000  0.34330000  1.0
  H  H145  1  0.75170000  0.90580000  0.28740000  1.0
  H  H146  1  0.78200000  0.97230000  0.29870000  1.0
  H  H147  1  0.57750000  0.05800000  0.46800000  1.0
  H  H148  1  0.63090000  0.02800000  0.52800000  1.0
  H  H149  1  0.73740000  0.96140000  0.52680000  1.0
  H  H150  1  0.01080000  0.93810000  0.51770000  1.0
  H  H151  1  0.94060000  0.99500000  0.56200000  1.0
  H  H152  1  0.05420000  0.00290000  0.61310000  1.0
  H  H153  1  0.52850000  0.88850000  0.63910000  1.0
  H  H154  1  0.53060000  0.81950000  0.64850000  1.0
  H  H155  1  0.37480000  0.78980000  0.62740000  1.0
  H  H156  1  0.66050000  0.71010000  0.45570000  1.0
  H  H157  1  0.67500000  0.63970000  0.46170000  1.0
  H  H158  1  0.81440000  0.60450000  0.50010000  1.0
  H  H159  1  0.15800000  0.68750000  0.58670000  1.0
  H  H160  1  0.08180000  0.74320000  0.62900000  1.0
  H  H161  1  0.88580000  0.77950000  0.62490000  1.0
  H  H162  1  0.41950000  0.68710000  0.45770000  1.0
  H  H163  1  0.39620000  0.62710000  0.42810000  1.0
  H  H164  1  0.32200000  0.63440000  0.37100000  1.0
  H  H165  1  0.47770000  0.79620000  0.26080000  1.0
  H  H166  1  0.40830000  0.86180000  0.28760000  1.0
  H  H167  1  0.25360000  0.86430000  0.34690000  1.0
  H  H168  1  0.54890000  0.84330000  0.13310000  1.0
  H  H169  1  0.65750000  0.78740000  0.09420000  1.0
  H  H170  1  0.75430000  0.79870000  0.02770000  1.0
  H  H171  1  0.63550000  0.96800000  0.94200000  1.0
  H  H172  1  0.65890000  0.02800000  0.97200000  1.0
  H  H173  1  0.69880000  0.02680000  0.03860000  1.0
  H  H174  1  0.94890000  0.01770000  0.06190000  1.0
  H  H175  1  0.93560000  0.06200000  0.00500000  1.0
  H  H176  1  0.05710000  0.11310000  0.99710000  1.0
  H  H177  1  0.41700000  0.13910000  0.11150000  1.0
  H  H178  1  0.35010000  0.14850000  0.18050000  1.0
  H  H179  1  0.16460000  0.12740000  0.21020000  1.0
  H  H180  1  0.37060000  0.95570000  0.28990000  1.0
  H  H181  1  0.31470000  0.96170000  0.36030000  1.0
  H  H182  1  0.41890000  0.00010000  0.39550000  1.0
  H  H183  1  0.84550000  0.08670000  0.31250000  1.0
  H  H184  1  0.82500000  0.12900000  0.25680000  1.0
  H  H185  1  0.66530000  0.12490000  0.22050000  1.0
  H  H186  1  0.10660000  0.95770000  0.31290000  1.0
  H  H187  1  0.02330000  0.92810000  0.37290000  1.0
  H  H188  1  0.95640000  0.87100000  0.36560000  1.0
  H  H189  1  0.27390000  0.76080000  0.20380000  1.0
  H  H190  1  0.27010000  0.78760000  0.13820000  1.0
  H  H191  1  0.11790000  0.84690000  0.13570000  1.0
  H  H192  1  0.02530000  0.65670000  0.36690000  1.0
  H  H193  1  0.03910000  0.71260000  0.40580000  1.0
  H  H194  1  0.08070000  0.70130000  0.47230000  1.0
  H  H195  1  0.04550000  0.53200000  0.55800000  1.0
  H  H196  1  0.15890000  0.47200000  0.52800000  1.0
  H  H197  1  0.26420000  0.47320000  0.46140000  1.0
  H  H198  1  0.52850000  0.48230000  0.43810000  1.0
  H  H199  1  0.50260000  0.43800000  0.49500000  1.0
  H  H200  1  0.66730000  0.38690000  0.50290000  1.0
  H  H201  1  0.16760000  0.36090000  0.38850000  1.0
  H  H202  1  0.17910000  0.35150000  0.31950000  1.0
  H  H203  1  0.00220000  0.37260000  0.28980000  1.0
  H  H204  1  0.11620000  0.54430000  0.21010000  1.0
  H  H205  1  0.13670000  0.53830000  0.13970000  1.0
  H  H206  1  0.31450000  0.49990000  0.10450000  1.0
  H  H207  1  0.74470000  0.41330000  0.18750000  1.0
  H  H208  1  0.71080000  0.37100000  0.24320000  1.0
  H  H209  1  0.51070000  0.37510000  0.27950000  1.0
  H  H210  1  0.87720000  0.54230000  0.18710000  1.0
  H  H211  1  0.82430000  0.57190000  0.12710000  1.0
  H  H212  1  0.69300000  0.62900000  0.13440000  1.0
  H  H213  1  0.73850000  0.73920000  0.29620000  1.0
  H  H214  1  0.69590000  0.71240000  0.36180000  1.0
  H  H215  1  0.60050000  0.65310000  0.36430000  1.0
  C  C216  1  0.58150000  0.38650000  0.92190000  1.0
  C  C217  1  0.52829000  0.40988000  0.88754000  1.0
  C  C218  1  0.56330000  0.39350000  0.84730000  1.0
  C  C219  1  0.53250000  0.41640000  0.81400000  1.0
  C  C220  1  0.46603000  0.45618000  0.82116000  1.0
  C  C221  1  0.45514000  0.44869000  0.89183000  1.0
  C  C222  1  0.40632000  0.46899000  0.93217000  1.0
  C  C223  1  0.38536000  0.53060000  0.96768000  1.0
  C  C224  1  0.33327000  0.51303000  0.00363000  1.0
  C  C225  1  0.31154000  0.47317000  0.00295000  1.0
  C  C226  1  0.34558000  0.45020000  0.96624000  1.0
  C  C227  1  0.30460000  0.40885000  0.96475000  1.0
  C  C228  1  0.91254000  0.37650000  0.01742000  1.0
  C  C229  1  0.89654000  0.41044000  0.04868000  1.0
  C  C230  1  0.97030000  0.44080000  0.04040000  1.0
  C  C231  1  0.95040000  0.47530000  0.06590000  1.0
  C  C232  1  0.84930000  0.47900000  0.09740000  1.0
  C  C233  1  0.80478000  0.41489000  0.08355000  1.0
  C  C234  1  0.72475000  0.38383000  0.10027000  1.0
  C  C235  1  0.52618000  0.37669000  0.13075000  1.0
  C  C236  1  0.55935000  0.33551000  0.13639000  1.0
  C  C237  1  0.68233000  0.31782000  0.12352000  1.0
  C  C238  1  0.76657000  0.34221000  0.10485000  1.0
  C  C239  1  0.89972000  0.32210000  0.09066000  1.0
  C  C240  1  0.47693000  0.26286000  0.98888000  1.0
  C  C241  1  0.51473000  0.21715000  0.99679000  1.0
  C  C242  1  0.62114000  0.19576000  0.97336000  1.0
  C  C243  1  0.64960000  0.15390000  0.97590000  1.0
  C  C244  1  0.56590000  0.13310000  0.00010000  1.0
  C  C245  1  0.44037000  0.19441000  0.02385000  1.0
  C  C246  1  0.33053000  0.21179000  0.05435000  1.0
  C  C247  1  0.13266000  0.20232000  0.08496000  1.0
  C  C248  1  0.11881000  0.23540000  0.11038000  1.0
  C  C249  1  0.21639000  0.25715000  0.10767000  1.0
  C  C250  1  0.32306000  0.24581000  0.07967000  1.0
  C  C251  1  0.43023000  0.26986000  0.07808000  1.0
  C  C252  1  0.88380000  0.26060000  0.93000000  1.0
  C  C253  1  0.97600000  0.22560000  0.91000000  1.0
  C  C254  1  0.98160000  0.18780000  0.93140000  1.0
  C  C255  1  0.05030000  0.15270000  0.91530000  1.0
  C  C256  1  0.11800000  0.15790000  0.88090000  1.0
  C  C257  1  0.04640000  0.22830000  0.87230000  1.0
  C  C258  1  0.03430000  0.26700000  0.84700000  1.0
  C  C259  1  0.98070000  0.29900000  0.78740000  1.0
  C  C260  1  0.97510000  0.33840000  0.80100000  1.0
  C  C261  1  0.02440000  0.33910000  0.83730000  1.0
  C  C262  1  0.05950000  0.30220000  0.86040000  1.0
  C  C263  1  0.11790000  0.30680000  0.90020000  1.0
  C  C264  1  0.38990000  0.11350000  0.57810000  1.0
  C  C265  1  0.32571000  0.09012000  0.61246000  1.0
  C  C266  1  0.30410000  0.10650000  0.65270000  1.0
  C  C267  1  0.26290000  0.08360000  0.68600000  1.0
  C  C268  1  0.24337000  0.04382000  0.67884000  1.0
  C  C269  1  0.29566000  0.05131000  0.60817000  1.0
  C  C270  1  0.30748000  0.03101000  0.56783000  1.0
  C  C271  1  0.38364000  0.96940000  0.53232000  1.0
  C  C272  1  0.34993000  0.98697000  0.49637000  1.0
  C  C273  1  0.28766000  0.02683000  0.49705000  1.0
  C  C274  1  0.26202000  0.04980000  0.53376000  1.0
  C  C275  1  0.17820000  0.09115000  0.53525000  1.0
  C  C276  1  0.80646000  0.12350000  0.48258000  1.0
  C  C277  1  0.85566000  0.08956000  0.45132000  1.0
  C  C278  1  0.95150000  0.05920000  0.45960000  1.0
  C  C279  1  0.99160000  0.02470000  0.43410000  1.0
  C  C280  1  0.92570000  0.02100000  0.40260000  1.0
  C  C281  1  0.80322000  0.08511000  0.41645000  1.0
  C  C282  1  0.70885000  0.11617000  0.39973000  1.0
  C  C283  1  0.53362000  0.12331000  0.36925000  1.0
  C  C284  1  0.53125000  0.16449000  0.36361000  1.0
  C  C285  1  0.62367000  0.18218000  0.37648000  1.0
  C  C286  1  0.71363000  0.15779000  0.39515000  1.0
  C  C287  1  0.81248000  0.17790000  0.40934000  1.0
  C  C288  1  0.22867000  0.23714000  0.51112000  1.0
  C  C289  1  0.22867000  0.28285000  0.50321000  1.0
  C  C290  1  0.29026000  0.30424000  0.52664000  1.0
  C  C291  1  0.27940000  0.34610000  0.52410000  1.0
  C  C292  1  0.19910000  0.36690000  0.49990000  1.0
  C  C293  1  0.15863000  0.30559000  0.47615000  1.0
  C  C294  1  0.09667000  0.28821000  0.44565000  1.0
  C  C295  1  0.91994000  0.29768000  0.41504000  1.0
  C  C296  1  0.96459000  0.26460000  0.38962000  1.0
  C  C297  1  0.08121000  0.24285000  0.39233000  1.0
  C  C298  1  0.14854000  0.25419000  0.42033000  1.0
  C  C299  1  0.27817000  0.23014000  0.42192000  1.0
  C  C300  1  0.57440000  0.23940000  0.57000000  1.0
  C  C301  1  0.61160000  0.27440000  0.59000000  1.0
  C  C302  1  0.60080000  0.31220000  0.56860000  1.0
  C  C303  1  0.61830000  0.34730000  0.58470000  1.0
  C  C304  1  0.65680000  0.34210000  0.61910000  1.0
  C  C305  1  0.64700000  0.27170000  0.62770000  1.0
  C  C306  1  0.64830000  0.23300000  0.65300000  1.0
  C  C307  1  0.56710000  0.20100000  0.71260000  1.0
  C  C308  1  0.61450000  0.16160000  0.69900000  1.0
  C  C309  1  0.70080000  0.16090000  0.66270000  1.0
  C  C310  1  0.72210000  0.19780000  0.63960000  1.0
  C  C311  1  0.82490000  0.19320000  0.59980000  1.0
  C  C312  1  0.50340000  0.07810000  0.88650000  1.0
  C  C313  1  0.41583000  0.11246000  0.90988000  1.0
  C  C314  1  0.41060000  0.15270000  0.89350000  1.0
  C  C315  1  0.34650000  0.18600000  0.91640000  1.0
  C  C316  1  0.28719000  0.17884000  0.95618000  1.0
  C  C317  1  0.34697000  0.10817000  0.94869000  1.0
  C  C318  1  0.33849000  0.06783000  0.96899000  1.0
  C  C319  1  0.35304000  0.03232000  0.03060000  1.0
  C  C320  1  0.33690000  0.99637000  0.01303000  1.0
  C  C321  1  0.31449000  0.99705000  0.97317000  1.0
  C  C322  1  0.31182000  0.03376000  0.95020000  1.0
  C  C323  1  0.26935000  0.03525000  0.90885000  1.0
  C  C324  1  0.92996000  0.98258000  0.87650000  1.0
  C  C325  1  0.94522000  0.95132000  0.91044000  1.0
  C  C326  1  0.01070000  0.95960000  0.94080000  1.0
  C  C327  1  0.01630000  0.93410000  0.97530000  1.0
  C  C328  1  0.94670000  0.90260000  0.97900000  1.0
  C  C329  1  0.88833000  0.91645000  0.91489000  1.0
  C  C330  1  0.82502000  0.89973000  0.88383000  1.0
  C  C331  1  0.65693000  0.86925000  0.87669000  1.0
  C  C332  1  0.69574000  0.86361000  0.83551000  1.0
  C  C333  1  0.80585000  0.87648000  0.81782000  1.0
  C  C334  1  0.87142000  0.89515000  0.84221000  1.0
  C  C335  1  0.99038000  0.90934000  0.82210000  1.0
  C  C336  1  0.46581000  0.01112000  0.76286000  1.0
  C  C337  1  0.51152000  0.00321000  0.71715000  1.0
  C  C338  1  0.59450000  0.02664000  0.69576000  1.0
  C  C339  1  0.62550000  0.02410000  0.65390000  1.0
  C  C340  1  0.56600000  0.99990000  0.63310000  1.0
  C  C341  1  0.46422000  0.97615000  0.69441000  1.0
  C  C342  1  0.38488000  0.94565000  0.71179000  1.0
  C  C343  1  0.21762000  0.91504000  0.70232000  1.0
  C  C344  1  0.22919000  0.88962000  0.73540000  1.0
  C  C345  1  0.32406000  0.89233000  0.75715000  1.0
  C  C346  1  0.40273000  0.92033000  0.74581000  1.0
  C  C347  1  0.50831000  0.92192000  0.76986000  1.0
  C  C348  1  0.81380000  0.07000000  0.76060000  1.0
  C  C349  1  0.88600000  0.09000000  0.72560000  1.0
  C  C350  1  0.91300000  0.06860000  0.68780000  1.0
  C  C351  1  0.96560000  0.08470000  0.65270000  1.0
  C  C352  1  0.99890000  0.11910000  0.65790000  1.0
  C  C353  1  0.91870000  0.12770000  0.72830000  1.0
  C  C354  1  0.88130000  0.15300000  0.76700000  1.0
  C  C355  1  0.76810000  0.21260000  0.79900000  1.0
  C  C356  1  0.77610000  0.19900000  0.83840000  1.0
  C  C357  1  0.86170000  0.16270000  0.83910000  1.0
  C  C358  1  0.91990000  0.13960000  0.80220000  1.0
  C  C359  1  0.01810000  0.09980000  0.80680000  1.0
  C  C360  1  0.96800000  0.42190000  0.61350000  1.0
  C  C361  1  0.93817000  0.38754000  0.59012000  1.0
  C  C362  1  0.95680000  0.34730000  0.60650000  1.0
  C  C363  1  0.94890000  0.31400000  0.58360000  1.0
  C  C364  1  0.92221000  0.32116000  0.54382000  1.0
  C  C365  1  0.90383000  0.39183000  0.55131000  1.0
  C  C366  1  0.87531000  0.43217000  0.53101000  1.0
  C  C367  1  0.91596000  0.46768000  0.46940000  1.0
  C  C368  1  0.84630000  0.50363000  0.48697000  1.0
  C  C369  1  0.78471000  0.50295000  0.52683000  1.0
  C  C370  1  0.79578000  0.46624000  0.54980000  1.0
  C  C371  1  0.71345000  0.46475000  0.59115000  1.0
  C  C372  1  0.28904000  0.51742000  0.62350000  1.0
  C  C373  1  0.30698000  0.54868000  0.58956000  1.0
  C  C374  1  0.41110000  0.54040000  0.55920000  1.0
  C  C375  1  0.42570000  0.56590000  0.52470000  1.0
  C  C376  1  0.32830000  0.59740000  0.52100000  1.0
  C  C377  1  0.21967000  0.58355000  0.58511000  1.0
  C  C378  1  0.10858000  0.60027000  0.61617000  1.0
  C  C379  1  0.90287000  0.63075000  0.62331000  1.0
  C  C380  1  0.89486000  0.63639000  0.66449000  1.0
  C  C381  1  0.00015000  0.62352000  0.68218000  1.0
  C  C382  1  0.10878000  0.60485000  0.65779000  1.0
  C  C383  1  0.22182000  0.59066000  0.67790000  1.0
  C  C384  1  0.73979000  0.48888000  0.73714000  1.0
  C  C385  1  0.73188000  0.49679000  0.78285000  1.0
  C  C386  1  0.81690000  0.47336000  0.80424000  1.0
  C  C387  1  0.80350000  0.47590000  0.84610000  1.0
  C  C388  1  0.69900000  0.50010000  0.86690000  1.0
  C  C389  1  0.63478000  0.52385000  0.80559000  1.0
  C  C390  1  0.54232000  0.55435000  0.78821000  1.0
  C  C391  1  0.33498000  0.58496000  0.79768000  1.0
  C  C392  1  0.35421000  0.61038000  0.76460000  1.0
  C  C393  1  0.47354000  0.60767000  0.74285000  1.0
  C  C394  1  0.56887000  0.57967000  0.75419000  1.0
  C  C395  1  0.70009000  0.57808000  0.73014000  1.0
  C  C396  1  0.14440000  0.43000000  0.73940000  1.0
  C  C397  1  0.20160000  0.41000000  0.77440000  1.0
  C  C398  1  0.16940000  0.43140000  0.81220000  1.0
  C  C399  1  0.20300000  0.41530000  0.84730000  1.0
  C  C400  1  0.27590000  0.38090000  0.84210000  1.0
  C  C401  1  0.27470000  0.37230000  0.77170000  1.0
  C  C402  1  0.30130000  0.34700000  0.73300000  1.0
  C  C403  1  0.27970000  0.28740000  0.70100000  1.0
  C  C404  1  0.31350000  0.30100000  0.66160000  1.0
  C  C405  1  0.36350000  0.33730000  0.66090000  1.0
  C  C406  1  0.36170000  0.36040000  0.69780000  1.0
  C  C407  1  0.42470000  0.40020000  0.69320000  1.0
  C  C408  1  0.41850000  0.61350000  0.07810000  1.0
  C  C409  1  0.47171000  0.59012000  0.11246000  1.0
  C  C410  1  0.43670000  0.60650000  0.15270000  1.0
  C  C411  1  0.46750000  0.58360000  0.18600000  1.0
  C  C412  1  0.53397000  0.54382000  0.17884000  1.0
  C  C413  1  0.54486000  0.55131000  0.10817000  1.0
  C  C414  1  0.59368000  0.53101000  0.06783000  1.0
  C  C415  1  0.61464000  0.46940000  0.03232000  1.0
  C  C416  1  0.66666667  0.48697000  0.99637000  1.0
  C  C417  1  0.68846000  0.52683000  0.99705000  1.0
  C  C418  1  0.65442000  0.54980000  0.03376000  1.0
  C  C419  1  0.69540000  0.59115000  0.03525000  1.0
  C  C420  1  0.08746000  0.62350000  0.98258000  1.0
  C  C421  1  0.10346000  0.58956000  0.95132000  1.0
  C  C422  1  0.02970000  0.55920000  0.95960000  1.0
  C  C423  1  0.04960000  0.52470000  0.93410000  1.0
  C  C424  1  0.15070000  0.52100000  0.90260000  1.0
  C  C425  1  0.19522000  0.58511000  0.91645000  1.0
  C  C426  1  0.27525000  0.61617000  0.89973000  1.0
  C  C427  1  0.47382000  0.62331000  0.86925000  1.0
  C  C428  1  0.44065000  0.66449000  0.86361000  1.0
  C  C429  1  0.31767000  0.68218000  0.87648000  1.0
  C  C430  1  0.23343000  0.65779000  0.89515000  1.0
  C  C431  1  0.10028000  0.67790000  0.90934000  1.0
  C  C432  1  0.52307000  0.73714000  0.01112000  1.0
  C  C433  1  0.48527000  0.78285000  0.00321000  1.0
  C  C434  1  0.37886000  0.80424000  0.02664000  1.0
  C  C435  1  0.35040000  0.84610000  0.02410000  1.0
  C  C436  1  0.43410000  0.86690000  0.99990000  1.0
  C  C437  1  0.55963000  0.80559000  0.97615000  1.0
  C  C438  1  0.66947000  0.78821000  0.94565000  1.0
  C  C439  1  0.86734000  0.79768000  0.91504000  1.0
  C  C440  1  0.88119000  0.76460000  0.88962000  1.0
  C  C441  1  0.78361000  0.74285000  0.89233000  1.0
  C  C442  1  0.67694000  0.75419000  0.92033000  1.0
  C  C443  1  0.56977000  0.73014000  0.92192000  1.0
  C  C444  1  0.11620000  0.73940000  0.07000000  1.0
  C  C445  1  0.02400000  0.77440000  0.09000000  1.0
  C  C446  1  0.01840000  0.81220000  0.06860000  1.0
  C  C447  1  0.94970000  0.84730000  0.08470000  1.0
  C  C448  1  0.88200000  0.84210000  0.11910000  1.0
  C  C449  1  0.95360000  0.77170000  0.12770000  1.0
  C  C450  1  0.96570000  0.73300000  0.15300000  1.0
  C  C451  1  0.01930000  0.70100000  0.21260000  1.0
  C  C452  1  0.02490000  0.66160000  0.19900000  1.0
  C  C453  1  0.97560000  0.66090000  0.16270000  1.0
  C  C454  1  0.94050000  0.69780000  0.13960000  1.0
  C  C455  1  0.88210000  0.69320000  0.09980000  1.0
  C  C456  1  0.61010000  0.88650000  0.42190000  1.0
  C  C457  1  0.67429000  0.90988000  0.38754000  1.0
  C  C458  1  0.69590000  0.89350000  0.34730000  1.0
  C  C459  1  0.73710000  0.91640000  0.31400000  1.0
  C  C460  1  0.75663000  0.95618000  0.32116000  1.0
  C  C461  1  0.70434000  0.94869000  0.39183000  1.0
  C  C462  1  0.69252000  0.96899000  0.43217000  1.0
  C  C463  1  0.61636000  0.03060000  0.46768000  1.0
  C  C464  1  0.65007000  0.01303000  0.50363000  1.0
  C  C465  1  0.71234000  0.97317000  0.50295000  1.0
  C  C466  1  0.73798000  0.95020000  0.46624000  1.0
  C  C467  1  0.82180000  0.90885000  0.46475000  1.0
  C  C468  1  0.19354000  0.87650000  0.51742000  1.0
  C  C469  1  0.14434000  0.91044000  0.54868000  1.0
  C  C470  1  0.04850000  0.94080000  0.54040000  1.0
  C  C471  1  0.00840000  0.97530000  0.56590000  1.0
  C  C472  1  0.07430000  0.97900000  0.59740000  1.0
  C  C473  1  0.19678000  0.91489000  0.58355000  1.0
  C  C474  1  0.29115000  0.88383000  0.60027000  1.0
  C  C475  1  0.46638000  0.87669000  0.63075000  1.0
  C  C476  1  0.46875000  0.83551000  0.63639000  1.0
  C  C477  1  0.37633000  0.81782000  0.62352000  1.0
  C  C478  1  0.28637000  0.84221000  0.60485000  1.0
  C  C479  1  0.18752000  0.82210000  0.59066000  1.0
  C  C480  1  0.77133000  0.76286000  0.48888000  1.0
  C  C481  1  0.77133000  0.71715000  0.49679000  1.0
  C  C482  1  0.70974000  0.69576000  0.47336000  1.0
  C  C483  1  0.72060000  0.65390000  0.47590000  1.0
  C  C484  1  0.80090000  0.63310000  0.50010000  1.0
  C  C485  1  0.84137000  0.69441000  0.52385000  1.0
  C  C486  1  0.90333000  0.71179000  0.55435000  1.0
  C  C487  1  0.08006000  0.70232000  0.58496000  1.0
  C  C488  1  0.03541000  0.73540000  0.61038000  1.0
  C  C489  1  0.91879000  0.75715000  0.60767000  1.0
  C  C490  1  0.85146000  0.74581000  0.57967000  1.0
  C  C491  1  0.72183000  0.76986000  0.57808000  1.0
  C  C492  1  0.42560000  0.76060000  0.43000000  1.0
  C  C493  1  0.38840000  0.72560000  0.41000000  1.0
  C  C494  1  0.39920000  0.68780000  0.43140000  1.0
  C  C495  1  0.38170000  0.65270000  0.41530000  1.0
  C  C496  1  0.34320000  0.65790000  0.38090000  1.0
  C  C497  1  0.35300000  0.72830000  0.37230000  1.0
  C  C498  1  0.35170000  0.76700000  0.34700000  1.0
  C  C499  1  0.43290000  0.79900000  0.28740000  1.0
  C  C500  1  0.38550000  0.83840000  0.30100000  1.0
  C  C501  1  0.29920000  0.83910000  0.33730000  1.0
  C  C502  1  0.27790000  0.80220000  0.36040000  1.0
  C  C503  1  0.17510000  0.80680000  0.40020000  1.0
  C  C504  1  0.49660000  0.92190000  0.11350000  1.0
  C  C505  1  0.58417000  0.88754000  0.09012000  1.0
  C  C506  1  0.58940000  0.84730000  0.10650000  1.0
  C  C507  1  0.65350000  0.81400000  0.08360000  1.0
  C  C508  1  0.71281000  0.82116000  0.04382000  1.0
  C  C509  1  0.65303000  0.89183000  0.05131000  1.0
  C  C510  1  0.66151000  0.93217000  0.03101000  1.0
  C  C511  1  0.64696000  0.96768000  0.96940000  1.0
  C  C512  1  0.66310000  0.00363000  0.98697000  1.0
  C  C513  1  0.68551000  0.00295000  0.02683000  1.0
  C  C514  1  0.68818000  0.96624000  0.04980000  1.0
  C  C515  1  0.73065000  0.96475000  0.09115000  1.0
  C  C516  1  0.07004000  0.01742000  0.12350000  1.0
  C  C517  1  0.05478000  0.04868000  0.08956000  1.0
  C  C518  1  0.98930000  0.04040000  0.05920000  1.0
  C  C519  1  0.98370000  0.06590000  0.02470000  1.0
  C  C520  1  0.05330000  0.09740000  0.02100000  1.0
  C  C521  1  0.11167000  0.08355000  0.08511000  1.0
  C  C522  1  0.17498000  0.10027000  0.11617000  1.0
  C  C523  1  0.34307000  0.13075000  0.12331000  1.0
  C  C524  1  0.30426000  0.13639000  0.16449000  1.0
  C  C525  1  0.19415000  0.12352000  0.18218000  1.0
  C  C526  1  0.12858000  0.10485000  0.15779000  1.0
  C  C527  1  0.00962000  0.09066000  0.17790000  1.0
  C  C528  1  0.53419000  0.98888000  0.23714000  1.0
  C  C529  1  0.48848000  0.99679000  0.28285000  1.0
  C  C530  1  0.40550000  0.97336000  0.30424000  1.0
  C  C531  1  0.37450000  0.97590000  0.34610000  1.0
  C  C532  1  0.43400000  0.00010000  0.36690000  1.0
  C  C533  1  0.53578000  0.02385000  0.30559000  1.0
  C  C534  1  0.61512000  0.05435000  0.28821000  1.0
  C  C535  1  0.78238000  0.08496000  0.29768000  1.0
  C  C536  1  0.77081000  0.11038000  0.26460000  1.0
  C  C537  1  0.67594000  0.10767000  0.24285000  1.0
  C  C538  1  0.59727000  0.07967000  0.25419000  1.0
  C  C539  1  0.49169000  0.07808000  0.23014000  1.0
  C  C540  1  0.18620000  0.93000000  0.23940000  1.0
  C  C541  1  0.11400000  0.91000000  0.27440000  1.0
  C  C542  1  0.08700000  0.93140000  0.31220000  1.0
  C  C543  1  0.03440000  0.91530000  0.34730000  1.0
  C  C544  1  0.00110000  0.88090000  0.34210000  1.0
  C  C545  1  0.08130000  0.87230000  0.27170000  1.0
  C  C546  1  0.11870000  0.84700000  0.23300000  1.0
  C  C547  1  0.23190000  0.78740000  0.20100000  1.0
  C  C548  1  0.22390000  0.80100000  0.16160000  1.0
  C  C549  1  0.13830000  0.83730000  0.16090000  1.0
  C  C550  1  0.08010000  0.86040000  0.19780000  1.0
  C  C551  1  0.98190000  0.90020000  0.19320000  1.0
  C  C552  1  0.03200000  0.57810000  0.38650000  1.0
  C  C553  1  0.06183000  0.61246000  0.40988000  1.0
  C  C554  1  0.04320000  0.65270000  0.39350000  1.0
  C  C555  1  0.05110000  0.68600000  0.41640000  1.0
  C  C556  1  0.07779000  0.67884000  0.45618000  1.0
  C  C557  1  0.09617000  0.60817000  0.44869000  1.0
  C  C558  1  0.12469000  0.56783000  0.46899000  1.0
  C  C559  1  0.08404000  0.53232000  0.53060000  1.0
  C  C560  1  0.15370000  0.49637000  0.51303000  1.0
  C  C561  1  0.21529000  0.49705000  0.47317000  1.0
  C  C562  1  0.20422000  0.53376000  0.45020000  1.0
  C  C563  1  0.28655000  0.53525000  0.40885000  1.0
  C  C564  1  0.71096000  0.48258000  0.37650000  1.0
  C  C565  1  0.69302000  0.45132000  0.41044000  1.0
  C  C566  1  0.58890000  0.45960000  0.44080000  1.0
  C  C567  1  0.57430000  0.43410000  0.47530000  1.0
  C  C568  1  0.67170000  0.40260000  0.47900000  1.0
  C  C569  1  0.78033000  0.41645000  0.41489000  1.0
  C  C570  1  0.89142000  0.39973000  0.38383000  1.0
  C  C571  1  0.09713000  0.36925000  0.37669000  1.0
  C  C572  1  0.10514000  0.36361000  0.33551000  1.0
  C  C573  1  0.99985000  0.37648000  0.31782000  1.0
  C  C574  1  0.89122000  0.39515000  0.34221000  1.0
  C  C575  1  0.77818000  0.40934000  0.32210000  1.0
  C  C576  1  0.26021000  0.51112000  0.26286000  1.0
  C  C577  1  0.26812000  0.50321000  0.21715000  1.0
  C  C578  1  0.18310000  0.52664000  0.19576000  1.0
  C  C579  1  0.19650000  0.52410000  0.15390000  1.0
  C  C580  1  0.30100000  0.49990000  0.13310000  1.0
  C  C581  1  0.36522000  0.47615000  0.19441000  1.0
  C  C582  1  0.45768000  0.44565000  0.21179000  1.0
  C  C583  1  0.66502000  0.41504000  0.20232000  1.0
  C  C584  1  0.64579000  0.38962000  0.23540000  1.0
  C  C585  1  0.52646000  0.39233000  0.25715000  1.0
  C  C586  1  0.43113000  0.42033000  0.24581000  1.0
  C  C587  1  0.29991000  0.42192000  0.26986000  1.0
  C  C588  1  0.85560000  0.57000000  0.26060000  1.0
  C  C589  1  0.79840000  0.59000000  0.22560000  1.0
  C  C590  1  0.83060000  0.56860000  0.18780000  1.0
  C  C591  1  0.79700000  0.58470000  0.15270000  1.0
  C  C592  1  0.72410000  0.61910000  0.15790000  1.0
  C  C593  1  0.72530000  0.62770000  0.22830000  1.0
  C  C594  1  0.69870000  0.65300000  0.26700000  1.0
  C  C595  1  0.72030000  0.71260000  0.29900000  1.0
  C  C596  1  0.68650000  0.69900000  0.33840000  1.0
  C  C597  1  0.63650000  0.66270000  0.33910000  1.0
  C  C598  1  0.63830000  0.63960000  0.30220000  1.0
  C  C599  1  0.57530000  0.59980000  0.30680000  1.0
  N  N600  1  0.00640000  0.26390000  0.80910000  1.0
  N  N601  1  0.12600000  0.19210000  0.85530000  1.0
  N  N602  1  0.23587000  0.19021000  0.05745000  1.0
  N  N603  1  0.46273000  0.15274000  0.02380000  1.0
  N  N604  1  0.42020000  0.50914000  0.93246000  1.0
  N  N605  1  0.42890000  0.47197000  0.85883000  1.0
  N  N606  1  0.77881000  0.44989000  0.10609000  1.0
  N  N607  1  0.60580000  0.40103000  0.11377000  1.0
  N  N608  1  0.57940000  0.23610000  0.69090000  1.0
  N  N609  1  0.67340000  0.30790000  0.64470000  1.0
  N  N610  1  0.98353000  0.30979000  0.44255000  1.0
  N  N611  1  0.13927000  0.34726000  0.47620000  1.0
  N  N612  1  0.36180000  0.99086000  0.56754000  1.0
  N  N613  1  0.25970000  0.02803000  0.64117000  1.0
  N  N614  1  0.83479000  0.05011000  0.39391000  1.0
  N  N615  1  0.62060000  0.09897000  0.38623000  1.0
  N  N616  1  0.81550000  0.19090000  0.76390000  1.0
  N  N617  1  0.98130000  0.14470000  0.69210000  1.0
  N  N618  1  0.29332000  0.94255000  0.69021000  1.0
  N  N619  1  0.48653000  0.97620000  0.65274000  1.0
  N  N620  1  0.35266000  0.06754000  0.00914000  1.0
  N  N621  1  0.28773000  0.14117000  0.97197000  1.0
  N  N622  1  0.88490000  0.89391000  0.94989000  1.0
  N  N623  1  0.71957000  0.88623000  0.90103000  1.0
  N  N624  1  0.27030000  0.30910000  0.73610000  1.0
  N  N625  1  0.31810000  0.35530000  0.80790000  1.0
  N  N626  1  0.42608000  0.55745000  0.80979000  1.0
  N  N627  1  0.61547000  0.52380000  0.84726000  1.0
  N  N628  1  0.92934000  0.43246000  0.49086000  1.0
  N  N629  1  0.90087000  0.35883000  0.52803000  1.0
  N  N630  1  0.22870000  0.60609000  0.55011000  1.0
  N  N631  1  0.00683000  0.61377000  0.59897000  1.0
  N  N632  1  0.99360000  0.73610000  0.19090000  1.0
  N  N633  1  0.87400000  0.80790000  0.14470000  1.0
  N  N634  1  0.76413000  0.80979000  0.94255000  1.0
  N  N635  1  0.53727000  0.84726000  0.97620000  1.0
  N  N636  1  0.57980000  0.49086000  0.06754000  1.0
  N  N637  1  0.57110000  0.52803000  0.14117000  1.0
  N  N638  1  0.22119000  0.55011000  0.89391000  1.0
  N  N639  1  0.39420000  0.59897000  0.88623000  1.0
  N  N640  1  0.42060000  0.76390000  0.30910000  1.0
  N  N641  1  0.32660000  0.69210000  0.35530000  1.0
  N  N642  1  0.01647000  0.69021000  0.55745000  1.0
  N  N643  1  0.86073000  0.65274000  0.52380000  1.0
  N  N644  1  0.63820000  0.00914000  0.43246000  1.0
  N  N645  1  0.74030000  0.97197000  0.35883000  1.0
  N  N646  1  0.16521000  0.94989000  0.60609000  1.0
  N  N647  1  0.37940000  0.90103000  0.61377000  1.0
  N  N648  1  0.18450000  0.80910000  0.23610000  1.0
  N  N649  1  0.01870000  0.85530000  0.30790000  1.0
  N  N650  1  0.70668000  0.05745000  0.30979000  1.0
  N  N651  1  0.51347000  0.02380000  0.34726000  1.0
  N  N652  1  0.64734000  0.93246000  0.99086000  1.0
  N  N653  1  0.71227000  0.85883000  0.02803000  1.0
  N  N654  1  0.11510000  0.10609000  0.05011000  1.0
  N  N655  1  0.28043000  0.11377000  0.09897000  1.0
  N  N656  1  0.72970000  0.69090000  0.26390000  1.0
  N  N657  1  0.68190000  0.64470000  0.19210000  1.0
  N  N658  1  0.57392000  0.44255000  0.19021000  1.0
  N  N659  1  0.38453000  0.47620000  0.15274000  1.0
  N  N660  1  0.07066000  0.56754000  0.50914000  1.0
  N  N661  1  0.09913000  0.64117000  0.47197000  1.0
  N  N662  1  0.77130000  0.39391000  0.44989000  1.0
  N  N663  1  0.99317000  0.38623000  0.40103000  1.0
  O  O664  1  0.53571000  0.25020000  0.07858000  1.0
  O  O665  1  0.40197000  0.30839000  0.07647000  1.0
  O  O666  1  0.61275000  0.40456000  0.94954000  1.0
  O  O667  1  0.59770000  0.34682000  0.91918000  1.0
  O  O668  1  0.56016000  0.28333000  0.97775000  1.0
  O  O669  1  0.36207000  0.27537000  0.99209000  1.0
  O  O670  1  0.22159000  0.40585000  0.94417000  1.0
  O  O671  1  0.35015000  0.37934000  0.98536000  1.0
  O  O672  1  0.18861000  0.27724000  0.91274000  1.0
  O  O673  1  0.09718000  0.33972000  0.91492000  1.0
  O  O674  1  0.01664000  0.36726000  0.99586000  1.0
  O  O675  1  0.81723000  0.36195000  0.01459000  1.0
  O  O676  1  0.91807000  0.28910000  0.07096000  1.0
  O  O677  1  0.98373000  0.33987000  0.09967000  1.0
  O  O678  1  0.90656000  0.27662000  0.96146000  1.0
  O  O679  1  0.78862000  0.27360000  0.91556000  1.0
  O  O680  1  0.36449000  0.24980000  0.42142000  1.0
  O  O681  1  0.28683000  0.19161000  0.42353000  1.0
  O  O682  1  0.46685000  0.09544000  0.55046000  1.0
  O  O683  1  0.36370000  0.15318000  0.58082000  1.0
  O  O684  1  0.32124000  0.21667000  0.52225000  1.0
  O  O685  1  0.12953000  0.22463000  0.50791000  1.0
  O  O686  1  0.07161000  0.09415000  0.55583000  1.0
  O  O687  1  0.21485000  0.12066000  0.51464000  1.0
  O  O688  1  0.87859000  0.22276000  0.58726000  1.0
  O  O689  1  0.85182000  0.16028000  0.58508000  1.0
  O  O690  1  0.87976000  0.13274000  0.50414000  1.0
  O  O691  1  0.69377000  0.13805000  0.48541000  1.0
  O  O692  1  0.77813000  0.21090000  0.42904000  1.0
  O  O693  1  0.92327000  0.16013000  0.40033000  1.0
  O  O694  1  0.64464000  0.22338000  0.53854000  1.0
  O  O695  1  0.47778000  0.22640000  0.58444000  1.0
  O  O696  1  0.61429000  0.92142000  0.75020000  1.0
  O  O697  1  0.47844000  0.92353000  0.80839000  1.0
  O  O698  1  0.56229000  0.05046000  0.90456000  1.0
  O  O699  1  0.51688000  0.08082000  0.84682000  1.0
  O  O700  1  0.53791000  0.02225000  0.78333000  1.0
  O  O701  1  0.35416000  0.00791000  0.77537000  1.0
  O  O702  1  0.16576000  0.05583000  0.90585000  1.0
  O  O703  1  0.33551000  0.01464000  0.87934000  1.0
  O  O704  1  0.10135000  0.08726000  0.77724000  1.0
  O  O705  1  0.01210000  0.08508000  0.83972000  1.0
  O  O706  1  0.01250000  0.00414000  0.86726000  1.0
  O  O707  1  0.83182000  0.98541000  0.86195000  1.0
  O  O708  1  0.98903000  0.92904000  0.78910000  1.0
  O  O709  1  0.08340000  0.90033000  0.83987000  1.0
  O  O710  1  0.86802000  0.03854000  0.77662000  1.0
  O  O711  1  0.70418000  0.08444000  0.77360000  1.0
  O  O712  1  0.78591000  0.57858000  0.74980000  1.0
  O  O713  1  0.71036000  0.57647000  0.69161000  1.0
  O  O714  1  0.01731000  0.44954000  0.59544000  1.0
  O  O715  1  0.94452000  0.41918000  0.65318000  1.0
  O  O716  1  0.84349000  0.47775000  0.71667000  1.0
  O  O717  1  0.63744000  0.49209000  0.72463000  1.0
  O  O718  1  0.62744000  0.44417000  0.59415000  1.0
  O  O719  1  0.72949000  0.48536000  0.62066000  1.0
  O  O720  1  0.46585000  0.41274000  0.72276000  1.0
  O  O721  1  0.43690000  0.41492000  0.66028000  1.0
  O  O722  1  0.38390000  0.49586000  0.63274000  1.0
  O  O723  1  0.17918000  0.51459000  0.63805000  1.0
  O  O724  1  0.20717000  0.57096000  0.71090000  1.0
  O  O725  1  0.32360000  0.59967000  0.66013000  1.0
  O  O726  1  0.18318000  0.46146000  0.72338000  1.0
  O  O727  1  0.06222000  0.41556000  0.72640000  1.0
  O  O728  1  0.46429000  0.74980000  0.92142000  1.0
  O  O729  1  0.59803000  0.69161000  0.92353000  1.0
  O  O730  1  0.38725000  0.59544000  0.05046000  1.0
  O  O731  1  0.40230000  0.65318000  0.08082000  1.0
  O  O732  1  0.43984000  0.71667000  0.02225000  1.0
  O  O733  1  0.63793000  0.72463000  0.00791000  1.0
  O  O734  1  0.77841000  0.59415000  0.05583000  1.0
  O  O735  1  0.64985000  0.62066000  0.01464000  1.0
  O  O736  1  0.81139000  0.72276000  0.08726000  1.0
  O  O737  1  0.90282000  0.66028000  0.08508000  1.0
  O  O738  1  0.98336000  0.63274000  0.00414000  1.0
  O  O739  1  0.18277000  0.63805000  0.98541000  1.0
  O  O740  1  0.08193000  0.71090000  0.92904000  1.0
  O  O741  1  0.01627000  0.66013000  0.90033000  1.0
  O  O742  1  0.09344000  0.72338000  0.03854000  1.0
  O  O743  1  0.21138000  0.72640000  0.08444000  1.0
  O  O744  1  0.63551000  0.75020000  0.57858000  1.0
  O  O745  1  0.71317000  0.80839000  0.57647000  1.0
  O  O746  1  0.53315000  0.90456000  0.44954000  1.0
  O  O747  1  0.63630000  0.84682000  0.41918000  1.0
  O  O748  1  0.67876000  0.78333000  0.47775000  1.0
  O  O749  1  0.87047000  0.77537000  0.49209000  1.0
  O  O750  1  0.92839000  0.90585000  0.44417000  1.0
  O  O751  1  0.78515000  0.87934000  0.48536000  1.0
  O  O752  1  0.12141000  0.77724000  0.41274000  1.0
  O  O753  1  0.14818000  0.83972000  0.41492000  1.0
  O  O754  1  0.12024000  0.86726000  0.49586000  1.0
  O  O755  1  0.30623000  0.86195000  0.51459000  1.0
  O  O756  1  0.22187000  0.78910000  0.57096000  1.0
  O  O757  1  0.07673000  0.83987000  0.59967000  1.0
  O  O758  1  0.35536000  0.77662000  0.46146000  1.0
  O  O759  1  0.52222000  0.77360000  0.41556000  1.0
  O  O760  1  0.38571000  0.07858000  0.24980000  1.0
  O  O761  1  0.52156000  0.07647000  0.19161000  1.0
  O  O762  1  0.43771000  0.94954000  0.09544000  1.0
  O  O763  1  0.48312000  0.91918000  0.15318000  1.0
  O  O764  1  0.46209000  0.97775000  0.21667000  1.0
  O  O765  1  0.64584000  0.99209000  0.22463000  1.0
  O  O766  1  0.83424000  0.94417000  0.09415000  1.0
  O  O767  1  0.66449000  0.98536000  0.12066000  1.0
  O  O768  1  0.89865000  0.91274000  0.22276000  1.0
  O  O769  1  0.98790000  0.91492000  0.16028000  1.0
  O  O770  1  0.98750000  0.99586000  0.13274000  1.0
  O  O771  1  0.16818000  0.01459000  0.13805000  1.0
  O  O772  1  0.01097000  0.07096000  0.21090000  1.0
  O  O773  1  0.91660000  0.09967000  0.16013000  1.0
  O  O774  1  0.13198000  0.96146000  0.22338000  1.0
  O  O775  1  0.29582000  0.91556000  0.22640000  1.0
  O  O776  1  0.21409000  0.42142000  0.25020000  1.0
  O  O777  1  0.28964000  0.42353000  0.30839000  1.0
  O  O778  1  0.98269000  0.55046000  0.40456000  1.0
  O  O779  1  0.05548000  0.58082000  0.34682000  1.0
  O  O780  1  0.15651000  0.52225000  0.28333000  1.0
  O  O781  1  0.36256000  0.50791000  0.27537000  1.0
  O  O782  1  0.37256000  0.55583000  0.40585000  1.0
  O  O783  1  0.27051000  0.51464000  0.37934000  1.0
  O  O784  1  0.53415000  0.58726000  0.27724000  1.0
  O  O785  1  0.56310000  0.58508000  0.33972000  1.0
  O  O786  1  0.61610000  0.50414000  0.36726000  1.0
  O  O787  1  0.82082000  0.48541000  0.36195000  1.0
  O  O788  1  0.79283000  0.42904000  0.28910000  1.0
  O  O789  1  0.67640000  0.40033000  0.33987000  1.0
  O  O790  1  0.81682000  0.53854000  0.27662000  1.0
  O  O791  1  0.93778000  0.58444000  0.27360000  1.0
