# generated using pymatgen
data_V4Cd2H100C104N8O13
_symmetry_space_group_name_H-M   'P 1'
_cell_length_a   17.04600000
_cell_length_b   24.04620000
_cell_length_c   28.84420000
_cell_angle_alpha   90.00000000
_cell_angle_beta   90.00000000
_cell_angle_gamma   90.00000000
_symmetry_Int_Tables_number   1
_chemical_formula_structural   V4Cd2H100C104N8O13
_chemical_formula_sum   'V16 Cd8 H400 C416 N32 O52'
_cell_volume   11822.99313117
_cell_formula_units_Z   4
loop_
 _symmetry_equiv_pos_site_id
 _symmetry_equiv_pos_as_xyz
  1  'x, y, z'
loop_
 _atom_site_type_symbol
 _atom_site_label
 _atom_site_symmetry_multiplicity
 _atom_site_fract_x
 _atom_site_fract_y
 _atom_site_fract_z
 _atom_site_occupancy
  V  V0  1  0.64455000  0.10030000  0.70571000  1.0
  V  V1  1  0.83193000  0.16517000  0.22345000  1.0
  V  V2  1  0.58400000  0.09669000  0.72322000  1.0
  V  V3  1  0.90760000  0.17458000  0.23578000  1.0
  V  V4  1  0.35545000  0.10030000  0.79429000  1.0
  V  V5  1  0.16807000  0.16517000  0.27655000  1.0
  V  V6  1  0.41600000  0.09669000  0.77678000  1.0
  V  V7  1  0.09240000  0.17458000  0.26422000  1.0
  V  V8  1  0.35545000  0.89970000  0.20571000  1.0
  V  V9  1  0.16807000  0.83483000  0.72345000  1.0
  V  V10  1  0.41600000  0.90331000  0.22322000  1.0
  V  V11  1  0.09240000  0.82542000  0.73578000  1.0
  V  V12  1  0.64455000  0.89970000  0.29429000  1.0
  V  V13  1  0.83193000  0.83483000  0.77655000  1.0
  V  V14  1  0.58400000  0.90331000  0.27678000  1.0
  V  V15  1  0.90760000  0.82542000  0.76422000  1.0
  Cd  Cd16  1  0.59146000  0.59846000  0.70902000  1.0
  Cd  Cd17  1  0.90933000  0.67107000  0.20919000  1.0
  Cd  Cd18  1  0.40854000  0.59846000  0.79098000  1.0
  Cd  Cd19  1  0.09067000  0.67107000  0.29081000  1.0
  Cd  Cd20  1  0.40854000  0.40154000  0.20902000  1.0
  Cd  Cd21  1  0.09067000  0.32893000  0.70919000  1.0
  Cd  Cd22  1  0.59146000  0.40154000  0.29098000  1.0
  Cd  Cd23  1  0.90933000  0.32893000  0.79081000  1.0
  H  H24  1  0.55250000  0.32340000  0.61920000  1.0
  H  H25  1  0.61240000  0.30990000  0.75310000  1.0
  H  H26  1  0.48760000  0.15040000  0.61600000  1.0
  H  H27  1  0.47530000  0.16020000  0.56160000  1.0
  H  H28  1  0.43290000  0.20010000  0.59830000  1.0
  H  H29  1  0.48010000  0.27430000  0.55500000  1.0
  H  H30  1  0.54260000  0.24470000  0.52180000  1.0
  H  H31  1  0.57000000  0.29330000  0.55610000  1.0
  H  H32  1  0.67170000  0.21050000  0.57150000  1.0
  H  H33  1  0.61760000  0.16610000  0.54540000  1.0
  H  H34  1  0.64120000  0.15640000  0.59840000  1.0
  H  H35  1  0.52040000  0.40730000  0.63690000  1.0
  H  H36  1  0.64180000  0.39150000  0.75370000  1.0
  H  H37  1  0.62900000  0.22690000  0.78920000  1.0
  H  H38  1  0.60000000  0.11480000  0.82510000  1.0
  H  H39  1  0.66400000  0.19560000  0.85320000  1.0
  H  H40  1  0.74590000  0.17410000  0.83220000  1.0
  H  H41  1  0.73820000  0.15010000  0.91220000  1.0
  H  H42  1  0.65800000  0.11720000  0.90310000  1.0
  H  H43  1  0.76150000  0.05360000  0.90800000  1.0
  H  H44  1  0.80770000  0.08540000  0.86760000  1.0
  H  H45  1  0.66310000  0.02670000  0.85620000  1.0
  H  H46  1  0.74620000  0.00730000  0.83600000  1.0
  H  H47  1  0.75030000  0.08490000  0.78720000  1.0
  H  H48  1  0.65600000  0.97300000  0.78790000  1.0
  H  H49  1  0.61000000  0.88880000  0.75920000  1.0
  H  H50  1  0.53860000  0.87280000  0.62690000  1.0
  H  H51  1  0.67800000  0.98170000  0.58200000  1.0
  H  H52  1  0.64070000  0.04050000  0.59590000  1.0
  H  H53  1  0.62840000  0.01620000  0.54470000  1.0
  H  H54  1  0.57450000  0.89870000  0.56240000  1.0
  H  H55  1  0.54450000  0.94470000  0.52640000  1.0
  H  H56  1  0.48410000  0.91660000  0.56190000  1.0
  H  H57  1  0.48760000  0.03750000  0.56460000  1.0
  H  H58  1  0.49050000  0.04130000  0.62000000  1.0
  H  H59  1  0.43790000  0.99470000  0.59540000  1.0
  H  H60  1  0.62560000  0.80530000  0.76280000  1.0
  H  H61  1  0.63190000  0.70970000  0.76720000  1.0
  H  H62  1  0.51180000  0.69490000  0.65110000  1.0
  H  H63  1  0.50580000  0.79070000  0.64220000  1.0
  H  H64  1  0.65020000  0.48720000  0.75720000  1.0
  H  H65  1  0.52290000  0.50300000  0.64580000  1.0
  H  H66  1  0.60370000  0.61330000  0.54580000  1.0
  H  H67  1  0.65340000  0.62880000  0.47190000  1.0
  H  H68  1  0.86780000  0.66500000  0.52850000  1.0
  H  H69  1  0.81520000  0.64810000  0.60180000  1.0
  H  H70  1  0.69710000  0.68310000  0.41600000  1.0
  H  H71  1  0.74240000  0.68840000  0.33960000  1.0
  H  H72  1  0.95890000  0.64360000  0.38210000  1.0
  H  H73  1  0.91230000  0.63630000  0.45800000  1.0
  H  H74  1  0.24280000  0.62600000  0.66530000  1.0
  H  H75  1  0.19570000  0.64020000  0.59050000  1.0
  H  H76  1  0.41470000  0.62190000  0.53910000  1.0
  H  H77  1  0.46010000  0.60310000  0.61440000  1.0
  H  H78  1  0.16220000  0.60630000  0.52130000  1.0
  H  H79  1  0.10740000  0.62550000  0.44960000  1.0
  H  H80  1  0.31150000  0.69450000  0.40860000  1.0
  H  H81  1  0.35810000  0.68820000  0.48410000  1.0
  H  H82  1  0.85100000  0.87440000  0.26210000  1.0
  H  H83  1  0.85070000  0.77760000  0.26310000  1.0
  H  H84  1  0.99190000  0.77210000  0.15690000  1.0
  H  H85  1  0.99320000  0.86850000  0.15050000  1.0
  H  H86  1  0.81150000  0.56640000  0.25130000  1.0
  H  H87  1  0.80590000  0.46990000  0.24950000  1.0
  H  H88  1  0.00350000  0.46800000  0.17570000  1.0
  H  H89  1  0.00350000  0.56540000  0.17580000  1.0
  H  H90  1  0.84100000  0.38160000  0.26750000  1.0
  H  H91  1  0.95130000  0.39300000  0.14510000  1.0
  H  H92  1  0.88400000  0.21780000  0.10980000  1.0
  H  H93  1  0.92310000  0.23600000  0.06170000  1.0
  H  H94  1  0.85190000  0.27130000  0.08280000  1.0
  H  H95  1  0.06870000  0.27610000  0.14420000  1.0
  H  H96  1  0.04800000  0.23100000  0.10540000  1.0
  H  H97  1  0.01100000  0.22560000  0.15620000  1.0
  H  H98  1  0.94930000  0.36090000  0.08000000  1.0
  H  H99  1  0.99470000  0.31360000  0.05170000  1.0
  H  H100  1  0.03790000  0.34560000  0.09310000  1.0
  H  H101  1  0.79620000  0.29590000  0.29740000  1.0
  H  H102  1  0.72670000  0.17750000  0.30190000  1.0
  H  H103  1  0.71930000  0.25640000  0.34740000  1.0
  H  H104  1  0.80530000  0.24540000  0.36800000  1.0
  H  H105  1  0.71520000  0.21170000  0.42360000  1.0
  H  H106  1  0.66820000  0.17730000  0.38510000  1.0
  H  H107  1  0.74300000  0.11510000  0.42800000  1.0
  H  H108  1  0.82090000  0.15070000  0.41910000  1.0
  H  H109  1  0.81820000  0.07180000  0.36790000  1.0
  H  H110  1  0.73630000  0.09280000  0.34670000  1.0
  H  H111  1  0.87990000  0.15550000  0.34120000  1.0
  H  H112  1  0.86240000  0.04300000  0.30740000  1.0
  H  H113  1  0.88630000  0.95900000  0.26980000  1.0
  H  H114  1  0.94600000  0.94910000  0.13550000  1.0
  H  H115  1  0.81080000  0.05860000  0.09820000  1.0
  H  H116  1  0.85690000  0.09660000  0.06170000  1.0
  H  H117  1  0.84770000  0.11660000  0.11440000  1.0
  H  H118  1  0.99350000  0.98830000  0.07660000  1.0
  H  H119  1  0.96280000  0.03170000  0.03860000  1.0
  H  H120  1  0.90300000  0.98860000  0.06180000  1.0
  H  H121  1  0.98690000  0.12890000  0.12520000  1.0
  H  H122  1  0.00520000  0.11100000  0.07290000  1.0
  H  H123  1  0.04760000  0.07960000  0.11490000  1.0
  H  H124  1  0.44750000  0.32340000  0.88080000  1.0
  H  H125  1  0.38760000  0.30990000  0.74690000  1.0
  H  H126  1  0.51240000  0.15040000  0.88400000  1.0
  H  H127  1  0.52470000  0.16020000  0.93840000  1.0
  H  H128  1  0.56710000  0.20010000  0.90170000  1.0
  H  H129  1  0.51990000  0.27430000  0.94500000  1.0
  H  H130  1  0.45740000  0.24470000  0.97820000  1.0
  H  H131  1  0.43000000  0.29330000  0.94390000  1.0
  H  H132  1  0.32830000  0.21050000  0.92850000  1.0
  H  H133  1  0.38240000  0.16610000  0.95460000  1.0
  H  H134  1  0.35880000  0.15640000  0.90160000  1.0
  H  H135  1  0.47960000  0.40730000  0.86310000  1.0
  H  H136  1  0.35820000  0.39150000  0.74630000  1.0
  H  H137  1  0.37100000  0.22690000  0.71080000  1.0
  H  H138  1  0.40000000  0.11480000  0.67490000  1.0
  H  H139  1  0.33600000  0.19560000  0.64680000  1.0
  H  H140  1  0.25410000  0.17410000  0.66780000  1.0
  H  H141  1  0.26180000  0.15010000  0.58780000  1.0
  H  H142  1  0.34200000  0.11720000  0.59690000  1.0
  H  H143  1  0.23850000  0.05360000  0.59200000  1.0
  H  H144  1  0.19230000  0.08540000  0.63240000  1.0
  H  H145  1  0.33690000  0.02670000  0.64380000  1.0
  H  H146  1  0.25380000  0.00730000  0.66400000  1.0
  H  H147  1  0.24970000  0.08490000  0.71280000  1.0
  H  H148  1  0.34400000  0.97300000  0.71210000  1.0
  H  H149  1  0.39000000  0.88880000  0.74080000  1.0
  H  H150  1  0.46140000  0.87280000  0.87310000  1.0
  H  H151  1  0.32200000  0.98170000  0.91800000  1.0
  H  H152  1  0.35930000  0.04050000  0.90410000  1.0
  H  H153  1  0.37160000  0.01620000  0.95530000  1.0
  H  H154  1  0.42550000  0.89870000  0.93760000  1.0
  H  H155  1  0.45550000  0.94470000  0.97360000  1.0
  H  H156  1  0.51590000  0.91660000  0.93810000  1.0
  H  H157  1  0.51240000  0.03750000  0.93540000  1.0
  H  H158  1  0.50950000  0.04130000  0.88000000  1.0
  H  H159  1  0.56210000  0.99470000  0.90460000  1.0
  H  H160  1  0.37440000  0.80530000  0.73720000  1.0
  H  H161  1  0.36810000  0.70970000  0.73280000  1.0
  H  H162  1  0.48820000  0.69490000  0.84890000  1.0
  H  H163  1  0.49420000  0.79070000  0.85780000  1.0
  H  H164  1  0.34980000  0.48720000  0.74280000  1.0
  H  H165  1  0.47710000  0.50300000  0.85420000  1.0
  H  H166  1  0.39630000  0.61330000  0.95420000  1.0
  H  H167  1  0.34660000  0.62880000  0.02810000  1.0
  H  H168  1  0.13220000  0.66500000  0.97150000  1.0
  H  H169  1  0.18480000  0.64810000  0.89820000  1.0
  H  H170  1  0.30290000  0.68310000  0.08400000  1.0
  H  H171  1  0.25760000  0.68840000  0.16040000  1.0
  H  H172  1  0.04110000  0.64360000  0.11790000  1.0
  H  H173  1  0.08770000  0.63630000  0.04200000  1.0
  H  H174  1  0.75720000  0.62600000  0.83470000  1.0
  H  H175  1  0.80430000  0.64020000  0.90950000  1.0
  H  H176  1  0.58530000  0.62190000  0.96090000  1.0
  H  H177  1  0.53990000  0.60310000  0.88560000  1.0
  H  H178  1  0.83780000  0.60630000  0.97870000  1.0
  H  H179  1  0.89260000  0.62550000  0.05040000  1.0
  H  H180  1  0.68850000  0.69450000  0.09140000  1.0
  H  H181  1  0.64190000  0.68820000  0.01590000  1.0
  H  H182  1  0.14900000  0.87440000  0.23790000  1.0
  H  H183  1  0.14930000  0.77760000  0.23690000  1.0
  H  H184  1  0.00810000  0.77210000  0.34310000  1.0
  H  H185  1  0.00680000  0.86850000  0.34950000  1.0
  H  H186  1  0.18850000  0.56640000  0.24870000  1.0
  H  H187  1  0.19410000  0.46990000  0.25050000  1.0
  H  H188  1  0.99650000  0.46800000  0.32430000  1.0
  H  H189  1  0.99650000  0.56540000  0.32420000  1.0
  H  H190  1  0.15900000  0.38160000  0.23250000  1.0
  H  H191  1  0.04870000  0.39300000  0.35490000  1.0
  H  H192  1  0.11600000  0.21780000  0.39020000  1.0
  H  H193  1  0.07690000  0.23600000  0.43830000  1.0
  H  H194  1  0.14810000  0.27130000  0.41720000  1.0
  H  H195  1  0.93130000  0.27610000  0.35580000  1.0
  H  H196  1  0.95200000  0.23100000  0.39460000  1.0
  H  H197  1  0.98900000  0.22560000  0.34380000  1.0
  H  H198  1  0.05070000  0.36090000  0.42000000  1.0
  H  H199  1  0.00530000  0.31360000  0.44830000  1.0
  H  H200  1  0.96210000  0.34560000  0.40690000  1.0
  H  H201  1  0.20380000  0.29590000  0.20260000  1.0
  H  H202  1  0.27330000  0.17750000  0.19810000  1.0
  H  H203  1  0.28070000  0.25640000  0.15260000  1.0
  H  H204  1  0.19470000  0.24540000  0.13200000  1.0
  H  H205  1  0.28480000  0.21170000  0.07640000  1.0
  H  H206  1  0.33180000  0.17730000  0.11490000  1.0
  H  H207  1  0.25700000  0.11510000  0.07200000  1.0
  H  H208  1  0.17910000  0.15070000  0.08090000  1.0
  H  H209  1  0.18180000  0.07180000  0.13210000  1.0
  H  H210  1  0.26370000  0.09280000  0.15330000  1.0
  H  H211  1  0.12010000  0.15550000  0.15880000  1.0
  H  H212  1  0.13760000  0.04300000  0.19260000  1.0
  H  H213  1  0.11370000  0.95900000  0.23020000  1.0
  H  H214  1  0.05400000  0.94910000  0.36450000  1.0
  H  H215  1  0.18920000  0.05860000  0.40180000  1.0
  H  H216  1  0.14310000  0.09660000  0.43830000  1.0
  H  H217  1  0.15230000  0.11660000  0.38560000  1.0
  H  H218  1  0.00650000  0.98830000  0.42340000  1.0
  H  H219  1  0.03720000  0.03170000  0.46140000  1.0
  H  H220  1  0.09700000  0.98860000  0.43820000  1.0
  H  H221  1  0.01310000  0.12890000  0.37480000  1.0
  H  H222  1  0.99480000  0.11100000  0.42710000  1.0
  H  H223  1  0.95240000  0.07960000  0.38510000  1.0
  H  H224  1  0.44750000  0.67660000  0.11920000  1.0
  H  H225  1  0.38760000  0.69010000  0.25310000  1.0
  H  H226  1  0.51240000  0.84960000  0.11600000  1.0
  H  H227  1  0.52470000  0.83980000  0.06160000  1.0
  H  H228  1  0.56710000  0.79990000  0.09830000  1.0
  H  H229  1  0.51990000  0.72570000  0.05500000  1.0
  H  H230  1  0.45740000  0.75530000  0.02180000  1.0
  H  H231  1  0.43000000  0.70670000  0.05610000  1.0
  H  H232  1  0.32830000  0.78950000  0.07150000  1.0
  H  H233  1  0.38240000  0.83390000  0.04540000  1.0
  H  H234  1  0.35880000  0.84360000  0.09840000  1.0
  H  H235  1  0.47960000  0.59270000  0.13690000  1.0
  H  H236  1  0.35820000  0.60850000  0.25370000  1.0
  H  H237  1  0.37100000  0.77310000  0.28920000  1.0
  H  H238  1  0.40000000  0.88520000  0.32510000  1.0
  H  H239  1  0.33600000  0.80440000  0.35320000  1.0
  H  H240  1  0.25410000  0.82590000  0.33220000  1.0
  H  H241  1  0.26180000  0.84990000  0.41220000  1.0
  H  H242  1  0.34200000  0.88280000  0.40310000  1.0
  H  H243  1  0.23850000  0.94640000  0.40800000  1.0
  H  H244  1  0.19230000  0.91460000  0.36760000  1.0
  H  H245  1  0.33690000  0.97330000  0.35620000  1.0
  H  H246  1  0.25380000  0.99270000  0.33600000  1.0
  H  H247  1  0.24970000  0.91510000  0.28720000  1.0
  H  H248  1  0.34400000  0.02700000  0.28790000  1.0
  H  H249  1  0.39000000  0.11120000  0.25920000  1.0
  H  H250  1  0.46140000  0.12720000  0.12690000  1.0
  H  H251  1  0.32200000  0.01830000  0.08200000  1.0
  H  H252  1  0.35930000  0.95950000  0.09590000  1.0
  H  H253  1  0.37160000  0.98380000  0.04470000  1.0
  H  H254  1  0.42550000  0.10130000  0.06240000  1.0
  H  H255  1  0.45550000  0.05530000  0.02640000  1.0
  H  H256  1  0.51590000  0.08340000  0.06190000  1.0
  H  H257  1  0.51240000  0.96250000  0.06460000  1.0
  H  H258  1  0.50950000  0.95870000  0.12000000  1.0
  H  H259  1  0.56210000  0.00530000  0.09540000  1.0
  H  H260  1  0.37440000  0.19470000  0.26280000  1.0
  H  H261  1  0.36810000  0.29030000  0.26720000  1.0
  H  H262  1  0.48820000  0.30510000  0.15110000  1.0
  H  H263  1  0.49420000  0.20930000  0.14220000  1.0
  H  H264  1  0.34980000  0.51280000  0.25720000  1.0
  H  H265  1  0.47710000  0.49700000  0.14580000  1.0
  H  H266  1  0.39630000  0.38670000  0.04580000  1.0
  H  H267  1  0.34660000  0.37120000  0.97190000  1.0
  H  H268  1  0.13220000  0.33500000  0.02850000  1.0
  H  H269  1  0.18480000  0.35190000  0.10180000  1.0
  H  H270  1  0.30290000  0.31690000  0.91600000  1.0
  H  H271  1  0.25760000  0.31160000  0.83960000  1.0
  H  H272  1  0.04110000  0.35640000  0.88210000  1.0
  H  H273  1  0.08770000  0.36370000  0.95800000  1.0
  H  H274  1  0.75720000  0.37400000  0.16530000  1.0
  H  H275  1  0.80430000  0.35980000  0.09050000  1.0
  H  H276  1  0.58530000  0.37810000  0.03910000  1.0
  H  H277  1  0.53990000  0.39690000  0.11440000  1.0
  H  H278  1  0.83780000  0.39370000  0.02130000  1.0
  H  H279  1  0.89260000  0.37450000  0.94960000  1.0
  H  H280  1  0.68850000  0.30550000  0.90860000  1.0
  H  H281  1  0.64190000  0.31180000  0.98410000  1.0
  H  H282  1  0.14900000  0.12560000  0.76210000  1.0
  H  H283  1  0.14930000  0.22240000  0.76310000  1.0
  H  H284  1  0.00810000  0.22790000  0.65690000  1.0
  H  H285  1  0.00680000  0.13150000  0.65050000  1.0
  H  H286  1  0.18850000  0.43360000  0.75130000  1.0
  H  H287  1  0.19410000  0.53010000  0.74950000  1.0
  H  H288  1  0.99650000  0.53200000  0.67570000  1.0
  H  H289  1  0.99650000  0.43460000  0.67580000  1.0
  H  H290  1  0.15900000  0.61840000  0.76750000  1.0
  H  H291  1  0.04870000  0.60700000  0.64510000  1.0
  H  H292  1  0.11600000  0.78220000  0.60980000  1.0
  H  H293  1  0.07690000  0.76400000  0.56170000  1.0
  H  H294  1  0.14810000  0.72870000  0.58280000  1.0
  H  H295  1  0.93130000  0.72390000  0.64420000  1.0
  H  H296  1  0.95200000  0.76900000  0.60540000  1.0
  H  H297  1  0.98900000  0.77440000  0.65620000  1.0
  H  H298  1  0.05070000  0.63910000  0.58000000  1.0
  H  H299  1  0.00530000  0.68640000  0.55170000  1.0
  H  H300  1  0.96210000  0.65440000  0.59310000  1.0
  H  H301  1  0.20380000  0.70410000  0.79740000  1.0
  H  H302  1  0.27330000  0.82250000  0.80190000  1.0
  H  H303  1  0.28070000  0.74360000  0.84740000  1.0
  H  H304  1  0.19470000  0.75460000  0.86800000  1.0
  H  H305  1  0.28480000  0.78830000  0.92360000  1.0
  H  H306  1  0.33180000  0.82270000  0.88510000  1.0
  H  H307  1  0.25700000  0.88490000  0.92800000  1.0
  H  H308  1  0.17910000  0.84930000  0.91910000  1.0
  H  H309  1  0.18180000  0.92820000  0.86790000  1.0
  H  H310  1  0.26370000  0.90720000  0.84670000  1.0
  H  H311  1  0.12010000  0.84450000  0.84120000  1.0
  H  H312  1  0.13760000  0.95700000  0.80740000  1.0
  H  H313  1  0.11370000  0.04100000  0.76980000  1.0
  H  H314  1  0.05400000  0.05090000  0.63550000  1.0
  H  H315  1  0.18920000  0.94140000  0.59820000  1.0
  H  H316  1  0.14310000  0.90340000  0.56170000  1.0
  H  H317  1  0.15230000  0.88340000  0.61440000  1.0
  H  H318  1  0.00650000  0.01170000  0.57660000  1.0
  H  H319  1  0.03720000  0.96830000  0.53860000  1.0
  H  H320  1  0.09700000  0.01140000  0.56180000  1.0
  H  H321  1  0.01310000  0.87110000  0.62520000  1.0
  H  H322  1  0.99480000  0.88900000  0.57290000  1.0
  H  H323  1  0.95240000  0.92040000  0.61490000  1.0
  H  H324  1  0.55250000  0.67660000  0.38080000  1.0
  H  H325  1  0.61240000  0.69010000  0.24690000  1.0
  H  H326  1  0.48760000  0.84960000  0.38400000  1.0
  H  H327  1  0.47530000  0.83980000  0.43840000  1.0
  H  H328  1  0.43290000  0.79990000  0.40170000  1.0
  H  H329  1  0.48010000  0.72570000  0.44500000  1.0
  H  H330  1  0.54260000  0.75530000  0.47820000  1.0
  H  H331  1  0.57000000  0.70670000  0.44390000  1.0
  H  H332  1  0.67170000  0.78950000  0.42850000  1.0
  H  H333  1  0.61760000  0.83390000  0.45460000  1.0
  H  H334  1  0.64120000  0.84360000  0.40160000  1.0
  H  H335  1  0.52040000  0.59270000  0.36310000  1.0
  H  H336  1  0.64180000  0.60850000  0.24630000  1.0
  H  H337  1  0.62900000  0.77310000  0.21080000  1.0
  H  H338  1  0.60000000  0.88520000  0.17490000  1.0
  H  H339  1  0.66400000  0.80440000  0.14680000  1.0
  H  H340  1  0.74590000  0.82590000  0.16780000  1.0
  H  H341  1  0.73820000  0.84990000  0.08780000  1.0
  H  H342  1  0.65800000  0.88280000  0.09690000  1.0
  H  H343  1  0.76150000  0.94640000  0.09200000  1.0
  H  H344  1  0.80770000  0.91460000  0.13240000  1.0
  H  H345  1  0.66310000  0.97330000  0.14380000  1.0
  H  H346  1  0.74620000  0.99270000  0.16400000  1.0
  H  H347  1  0.75030000  0.91510000  0.21280000  1.0
  H  H348  1  0.65600000  0.02700000  0.21210000  1.0
  H  H349  1  0.61000000  0.11120000  0.24080000  1.0
  H  H350  1  0.53860000  0.12720000  0.37310000  1.0
  H  H351  1  0.67800000  0.01830000  0.41800000  1.0
  H  H352  1  0.64070000  0.95950000  0.40410000  1.0
  H  H353  1  0.62840000  0.98380000  0.45530000  1.0
  H  H354  1  0.57450000  0.10130000  0.43760000  1.0
  H  H355  1  0.54450000  0.05530000  0.47360000  1.0
  H  H356  1  0.48410000  0.08340000  0.43810000  1.0
  H  H357  1  0.48760000  0.96250000  0.43540000  1.0
  H  H358  1  0.49050000  0.95870000  0.38000000  1.0
  H  H359  1  0.43790000  0.00530000  0.40460000  1.0
  H  H360  1  0.62560000  0.19470000  0.23720000  1.0
  H  H361  1  0.63190000  0.29030000  0.23280000  1.0
  H  H362  1  0.51180000  0.30510000  0.34890000  1.0
  H  H363  1  0.50580000  0.20930000  0.35780000  1.0
  H  H364  1  0.65020000  0.51280000  0.24280000  1.0
  H  H365  1  0.52290000  0.49700000  0.35420000  1.0
  H  H366  1  0.60370000  0.38670000  0.45420000  1.0
  H  H367  1  0.65340000  0.37120000  0.52810000  1.0
  H  H368  1  0.86780000  0.33500000  0.47150000  1.0
  H  H369  1  0.81520000  0.35190000  0.39820000  1.0
  H  H370  1  0.69710000  0.31690000  0.58400000  1.0
  H  H371  1  0.74240000  0.31160000  0.66040000  1.0
  H  H372  1  0.95890000  0.35640000  0.61790000  1.0
  H  H373  1  0.91230000  0.36370000  0.54200000  1.0
  H  H374  1  0.24280000  0.37400000  0.33470000  1.0
  H  H375  1  0.19570000  0.35980000  0.40950000  1.0
  H  H376  1  0.41470000  0.37810000  0.46090000  1.0
  H  H377  1  0.46010000  0.39690000  0.38560000  1.0
  H  H378  1  0.16220000  0.39370000  0.47870000  1.0
  H  H379  1  0.10740000  0.37450000  0.55040000  1.0
  H  H380  1  0.31150000  0.30550000  0.59140000  1.0
  H  H381  1  0.35810000  0.31180000  0.51590000  1.0
  H  H382  1  0.85100000  0.12560000  0.73790000  1.0
  H  H383  1  0.85070000  0.22240000  0.73690000  1.0
  H  H384  1  0.99190000  0.22790000  0.84310000  1.0
  H  H385  1  0.99320000  0.13150000  0.84950000  1.0
  H  H386  1  0.81150000  0.43360000  0.74870000  1.0
  H  H387  1  0.80590000  0.53010000  0.75050000  1.0
  H  H388  1  0.00350000  0.53200000  0.82430000  1.0
  H  H389  1  0.00350000  0.43460000  0.82420000  1.0
  H  H390  1  0.84100000  0.61840000  0.73250000  1.0
  H  H391  1  0.95130000  0.60700000  0.85490000  1.0
  H  H392  1  0.88400000  0.78220000  0.89020000  1.0
  H  H393  1  0.92310000  0.76400000  0.93830000  1.0
  H  H394  1  0.85190000  0.72870000  0.91720000  1.0
  H  H395  1  0.06870000  0.72390000  0.85580000  1.0
  H  H396  1  0.04800000  0.76900000  0.89460000  1.0
  H  H397  1  0.01100000  0.77440000  0.84380000  1.0
  H  H398  1  0.94930000  0.63910000  0.92000000  1.0
  H  H399  1  0.99470000  0.68640000  0.94830000  1.0
  H  H400  1  0.03790000  0.65440000  0.90690000  1.0
  H  H401  1  0.79620000  0.70410000  0.70260000  1.0
  H  H402  1  0.72670000  0.82250000  0.69810000  1.0
  H  H403  1  0.71930000  0.74360000  0.65260000  1.0
  H  H404  1  0.80530000  0.75460000  0.63200000  1.0
  H  H405  1  0.71520000  0.78830000  0.57640000  1.0
  H  H406  1  0.66820000  0.82270000  0.61490000  1.0
  H  H407  1  0.74300000  0.88490000  0.57200000  1.0
  H  H408  1  0.82090000  0.84930000  0.58090000  1.0
  H  H409  1  0.81820000  0.92820000  0.63210000  1.0
  H  H410  1  0.73630000  0.90720000  0.65330000  1.0
  H  H411  1  0.87990000  0.84450000  0.65880000  1.0
  H  H412  1  0.86240000  0.95700000  0.69260000  1.0
  H  H413  1  0.88630000  0.04100000  0.73020000  1.0
  H  H414  1  0.94600000  0.05090000  0.86450000  1.0
  H  H415  1  0.81080000  0.94140000  0.90180000  1.0
  H  H416  1  0.85690000  0.90340000  0.93830000  1.0
  H  H417  1  0.84770000  0.88340000  0.88560000  1.0
  H  H418  1  0.99350000  0.01170000  0.92340000  1.0
  H  H419  1  0.96280000  0.96830000  0.96140000  1.0
  H  H420  1  0.90300000  0.01140000  0.93820000  1.0
  H  H421  1  0.98690000  0.87110000  0.87480000  1.0
  H  H422  1  0.00520000  0.88900000  0.92710000  1.0
  H  H423  1  0.04760000  0.92040000  0.88510000  1.0
  C  C424  1  0.58220000  0.20900000  0.67710000  1.0
  C  C425  1  0.56610000  0.24330000  0.63840000  1.0
  C  C426  1  0.56480000  0.30050000  0.64500000  1.0
  C  C427  1  0.58040000  0.32600000  0.68720000  1.0
  C  C428  1  0.59980000  0.29320000  0.72420000  1.0
  C  C429  1  0.60110000  0.23440000  0.71990000  1.0
  C  C430  1  0.55170000  0.21750000  0.59110000  1.0
  C  C431  1  0.48040000  0.17850000  0.59180000  1.0
  C  C432  1  0.53450000  0.26160000  0.55240000  1.0
  C  C433  1  0.62780000  0.18440000  0.57510000  1.0
  C  C434  1  0.58000000  0.38810000  0.69240000  1.0
  C  C435  1  0.54690000  0.42250000  0.66300000  1.0
  C  C436  1  0.61810000  0.41350000  0.73020000  1.0
  C  C437  1  0.62260000  0.20550000  0.76180000  1.0
  C  C438  1  0.65100000  0.12610000  0.81080000  1.0
  C  C439  1  0.69520000  0.16210000  0.84560000  1.0
  C  C440  1  0.70910000  0.12740000  0.88930000  1.0
  C  C441  1  0.75490000  0.07530000  0.87910000  1.0
  C  C442  1  0.71350000  0.04010000  0.84340000  1.0
  C  C443  1  0.69820000  0.07290000  0.79960000  1.0
  C  C444  1  0.64270000  0.99350000  0.76090000  1.0
  C  C445  1  0.60880000  0.96280000  0.72330000  1.0
  C  C446  1  0.59860000  0.90460000  0.72980000  1.0
  C  C447  1  0.57300000  0.87080000  0.69480000  1.0
  C  C448  1  0.55730000  0.89560000  0.65140000  1.0
  C  C449  1  0.56810000  0.95230000  0.64310000  1.0
  C  C450  1  0.59080000  0.98650000  0.68030000  1.0
  C  C451  1  0.55590000  0.97640000  0.59400000  1.0
  C  C452  1  0.63300000  0.00650000  0.57760000  1.0
  C  C453  1  0.53810000  0.92980000  0.55780000  1.0
  C  C454  1  0.48690000  0.01600000  0.59340000  1.0
  C  C455  1  0.56810000  0.81010000  0.70120000  1.0
  C  C456  1  0.60300000  0.78360000  0.73870000  1.0
  C  C457  1  0.60560000  0.72640000  0.74170000  1.0
  C  C458  1  0.53610000  0.71780000  0.67390000  1.0
  C  C459  1  0.53230000  0.77520000  0.66810000  1.0
  C  C460  1  0.62080000  0.47100000  0.73270000  1.0
  C  C461  1  0.54860000  0.48030000  0.66800000  1.0
  C  C462  1  0.67180000  0.61790000  0.62850000  1.0
  C  C463  1  0.70510000  0.62990000  0.58150000  1.0
  C  C464  1  0.65710000  0.62380000  0.54210000  1.0
  C  C465  1  0.68680000  0.63300000  0.49810000  1.0
  C  C466  1  0.76620000  0.64830000  0.49150000  1.0
  C  C467  1  0.81440000  0.65440000  0.53160000  1.0
  C  C468  1  0.78250000  0.64450000  0.57540000  1.0
  C  C469  1  0.79810000  0.65610000  0.44410000  1.0
  C  C470  1  0.75000000  0.67360000  0.40920000  1.0
  C  C471  1  0.77710000  0.67780000  0.36380000  1.0
  C  C472  1  0.85410000  0.66650000  0.35410000  1.0
  C  C473  1  0.90530000  0.65090000  0.38890000  1.0
  C  C474  1  0.87730000  0.64630000  0.43380000  1.0
  C  C475  1  0.87970000  0.66930000  0.30410000  1.0
  C  C476  1  0.38400000  0.59960000  0.69510000  1.0
  C  C477  1  0.35630000  0.61110000  0.64650000  1.0
  C  C478  1  0.27760000  0.62380000  0.63960000  1.0
  C  C479  1  0.25000000  0.63330000  0.59520000  1.0
  C  C480  1  0.30000000  0.63300000  0.55720000  1.0
  C  C481  1  0.37910000  0.62200000  0.56440000  1.0
  C  C482  1  0.40610000  0.61090000  0.60950000  1.0
  C  C483  1  0.26680000  0.64300000  0.50940000  1.0
  C  C484  1  0.19210000  0.62580000  0.49880000  1.0
  C  C485  1  0.15990000  0.63650000  0.45590000  1.0
  C  C486  1  0.20300000  0.66290000  0.42200000  1.0
  C  C487  1  0.27940000  0.67900000  0.43220000  1.0
  C  C488  1  0.30870000  0.67240000  0.47630000  1.0
  C  C489  1  0.91870000  0.94530000  0.20360000  1.0
  C  C490  1  0.92340000  0.88330000  0.20670000  1.0
  C  C491  1  0.88050000  0.85460000  0.23960000  1.0
  C  C492  1  0.88040000  0.79620000  0.23990000  1.0
  C  C493  1  0.96170000  0.79320000  0.17820000  1.0
  C  C494  1  0.96410000  0.85120000  0.17460000  1.0
  C  C495  1  0.85060000  0.54650000  0.23480000  1.0
  C  C496  1  0.84730000  0.48850000  0.23400000  1.0
  C  C497  1  0.90240000  0.45850000  0.21130000  1.0
  C  C498  1  0.96210000  0.48760000  0.19060000  1.0
  C  C499  1  0.96260000  0.54600000  0.19120000  1.0
  C  C500  1  0.89590000  0.39730000  0.20740000  1.0
  C  C501  1  0.86190000  0.36480000  0.24040000  1.0
  C  C502  1  0.85720000  0.30620000  0.23490000  1.0
  C  C503  1  0.88600000  0.27970000  0.19540000  1.0
  C  C504  1  0.92160000  0.31360000  0.15990000  1.0
  C  C505  1  0.92610000  0.37060000  0.16790000  1.0
  C  C506  1  0.95790000  0.28650000  0.11690000  1.0
  C  C507  1  0.89880000  0.24950000  0.09040000  1.0
  C  C508  1  0.02760000  0.25170000  0.13200000  1.0
  C  C509  1  0.98770000  0.33070000  0.08230000  1.0
  C  C510  1  0.81970000  0.27530000  0.27300000  1.0
  C  C511  1  0.77710000  0.19260000  0.31430000  1.0
  C  C512  1  0.75720000  0.22710000  0.35620000  1.0
  C  C513  1  0.72110000  0.18950000  0.39490000  1.0
  C  C514  1  0.77050000  0.13890000  0.40520000  1.0
  C  C515  1  0.78660000  0.10520000  0.36050000  1.0
  C  C516  1  0.83070000  0.14170000  0.32620000  1.0
  C  C517  1  0.86660000  0.06400000  0.27960000  1.0
  C  C518  1  0.89100000  0.03540000  0.23780000  1.0
  C  C519  1  0.89720000  0.97680000  0.24110000  1.0
  C  C520  1  0.93150000  0.97120000  0.16140000  1.0
  C  C521  1  0.92410000  0.02850000  0.15560000  1.0
  C  C522  1  0.90560000  0.06110000  0.19390000  1.0
  C  C523  1  0.93120000  0.05490000  0.10650000  1.0
  C  C524  1  0.85480000  0.08430000  0.09410000  1.0
  C  C525  1  0.94930000  0.01190000  0.06720000  1.0
  C  C526  1  0.99890000  0.09750000  0.10470000  1.0
  C  C527  1  0.16850000  0.67010000  0.37390000  1.0
  C  C528  1  0.41780000  0.20900000  0.82290000  1.0
  C  C529  1  0.43390000  0.24330000  0.86160000  1.0
  C  C530  1  0.43520000  0.30050000  0.85500000  1.0
  C  C531  1  0.41960000  0.32600000  0.81280000  1.0
  C  C532  1  0.40020000  0.29320000  0.77580000  1.0
  C  C533  1  0.39890000  0.23440000  0.78010000  1.0
  C  C534  1  0.44830000  0.21750000  0.90890000  1.0
  C  C535  1  0.51960000  0.17850000  0.90820000  1.0
  C  C536  1  0.46550000  0.26160000  0.94760000  1.0
  C  C537  1  0.37220000  0.18440000  0.92490000  1.0
  C  C538  1  0.42000000  0.38810000  0.80760000  1.0
  C  C539  1  0.45310000  0.42250000  0.83700000  1.0
  C  C540  1  0.38190000  0.41350000  0.76980000  1.0
  C  C541  1  0.37740000  0.20550000  0.73820000  1.0
  C  C542  1  0.34900000  0.12610000  0.68920000  1.0
  C  C543  1  0.30480000  0.16210000  0.65440000  1.0
  C  C544  1  0.29090000  0.12740000  0.61070000  1.0
  C  C545  1  0.24510000  0.07530000  0.62090000  1.0
  C  C546  1  0.28650000  0.04010000  0.65660000  1.0
  C  C547  1  0.30180000  0.07290000  0.70040000  1.0
  C  C548  1  0.35730000  0.99350000  0.73910000  1.0
  C  C549  1  0.39120000  0.96280000  0.77670000  1.0
  C  C550  1  0.40140000  0.90460000  0.77020000  1.0
  C  C551  1  0.42700000  0.87080000  0.80520000  1.0
  C  C552  1  0.44270000  0.89560000  0.84860000  1.0
  C  C553  1  0.43190000  0.95230000  0.85690000  1.0
  C  C554  1  0.40920000  0.98650000  0.81970000  1.0
  C  C555  1  0.44410000  0.97640000  0.90600000  1.0
  C  C556  1  0.36700000  0.00650000  0.92240000  1.0
  C  C557  1  0.46190000  0.92980000  0.94220000  1.0
  C  C558  1  0.51310000  0.01600000  0.90660000  1.0
  C  C559  1  0.43190000  0.81010000  0.79880000  1.0
  C  C560  1  0.39700000  0.78360000  0.76130000  1.0
  C  C561  1  0.39440000  0.72640000  0.75830000  1.0
  C  C562  1  0.46390000  0.71780000  0.82610000  1.0
  C  C563  1  0.46770000  0.77520000  0.83190000  1.0
  C  C564  1  0.37920000  0.47100000  0.76730000  1.0
  C  C565  1  0.45140000  0.48030000  0.83200000  1.0
  C  C566  1  0.32820000  0.61790000  0.87150000  1.0
  C  C567  1  0.29490000  0.62990000  0.91850000  1.0
  C  C568  1  0.34290000  0.62380000  0.95790000  1.0
  C  C569  1  0.31320000  0.63300000  0.00190000  1.0
  C  C570  1  0.23380000  0.64830000  0.00850000  1.0
  C  C571  1  0.18560000  0.65440000  0.96840000  1.0
  C  C572  1  0.21750000  0.64450000  0.92460000  1.0
  C  C573  1  0.20190000  0.65610000  0.05590000  1.0
  C  C574  1  0.25000000  0.67360000  0.09080000  1.0
  C  C575  1  0.22290000  0.67780000  0.13620000  1.0
  C  C576  1  0.14590000  0.66650000  0.14590000  1.0
  C  C577  1  0.09470000  0.65090000  0.11110000  1.0
  C  C578  1  0.12270000  0.64630000  0.06620000  1.0
  C  C579  1  0.12030000  0.66930000  0.19590000  1.0
  C  C580  1  0.61600000  0.59960000  0.80490000  1.0
  C  C581  1  0.64370000  0.61110000  0.85350000  1.0
  C  C582  1  0.72240000  0.62380000  0.86040000  1.0
  C  C583  1  0.75000000  0.63330000  0.90480000  1.0
  C  C584  1  0.70000000  0.63300000  0.94280000  1.0
  C  C585  1  0.62090000  0.62200000  0.93560000  1.0
  C  C586  1  0.59390000  0.61090000  0.89050000  1.0
  C  C587  1  0.73320000  0.64300000  0.99060000  1.0
  C  C588  1  0.80790000  0.62580000  0.00120000  1.0
  C  C589  1  0.84010000  0.63650000  0.04410000  1.0
  C  C590  1  0.79700000  0.66290000  0.07800000  1.0
  C  C591  1  0.72060000  0.67900000  0.06780000  1.0
  C  C592  1  0.69130000  0.67240000  0.02370000  1.0
  C  C593  1  0.08130000  0.94530000  0.29640000  1.0
  C  C594  1  0.07660000  0.88330000  0.29330000  1.0
  C  C595  1  0.11950000  0.85460000  0.26040000  1.0
  C  C596  1  0.11960000  0.79620000  0.26010000  1.0
  C  C597  1  0.03830000  0.79320000  0.32180000  1.0
  C  C598  1  0.03590000  0.85120000  0.32540000  1.0
  C  C599  1  0.14940000  0.54650000  0.26520000  1.0
  C  C600  1  0.15270000  0.48850000  0.26600000  1.0
  C  C601  1  0.09760000  0.45850000  0.28870000  1.0
  C  C602  1  0.03790000  0.48760000  0.30940000  1.0
  C  C603  1  0.03740000  0.54600000  0.30880000  1.0
  C  C604  1  0.10410000  0.39730000  0.29260000  1.0
  C  C605  1  0.13810000  0.36480000  0.25960000  1.0
  C  C606  1  0.14280000  0.30620000  0.26510000  1.0
  C  C607  1  0.11400000  0.27970000  0.30460000  1.0
  C  C608  1  0.07840000  0.31360000  0.34010000  1.0
  C  C609  1  0.07390000  0.37060000  0.33210000  1.0
  C  C610  1  0.04210000  0.28650000  0.38310000  1.0
  C  C611  1  0.10120000  0.24950000  0.40960000  1.0
  C  C612  1  0.97240000  0.25170000  0.36800000  1.0
  C  C613  1  0.01230000  0.33070000  0.41770000  1.0
  C  C614  1  0.18030000  0.27530000  0.22700000  1.0
  C  C615  1  0.22290000  0.19260000  0.18570000  1.0
  C  C616  1  0.24280000  0.22710000  0.14380000  1.0
  C  C617  1  0.27890000  0.18950000  0.10510000  1.0
  C  C618  1  0.22950000  0.13890000  0.09480000  1.0
  C  C619  1  0.21340000  0.10520000  0.13950000  1.0
  C  C620  1  0.16930000  0.14170000  0.17380000  1.0
  C  C621  1  0.13340000  0.06400000  0.22040000  1.0
  C  C622  1  0.10900000  0.03540000  0.26220000  1.0
  C  C623  1  0.10280000  0.97680000  0.25890000  1.0
  C  C624  1  0.06850000  0.97120000  0.33860000  1.0
  C  C625  1  0.07590000  0.02850000  0.34440000  1.0
  C  C626  1  0.09440000  0.06110000  0.30610000  1.0
  C  C627  1  0.06880000  0.05490000  0.39350000  1.0
  C  C628  1  0.14520000  0.08430000  0.40590000  1.0
  C  C629  1  0.05070000  0.01190000  0.43280000  1.0
  C  C630  1  0.00110000  0.09750000  0.39530000  1.0
  C  C631  1  0.83150000  0.67010000  0.12610000  1.0
  C  C632  1  0.41780000  0.79100000  0.17710000  1.0
  C  C633  1  0.43390000  0.75670000  0.13840000  1.0
  C  C634  1  0.43520000  0.69950000  0.14500000  1.0
  C  C635  1  0.41960000  0.67400000  0.18720000  1.0
  C  C636  1  0.40020000  0.70680000  0.22420000  1.0
  C  C637  1  0.39890000  0.76560000  0.21990000  1.0
  C  C638  1  0.44830000  0.78250000  0.09110000  1.0
  C  C639  1  0.51960000  0.82150000  0.09180000  1.0
  C  C640  1  0.46550000  0.73840000  0.05240000  1.0
  C  C641  1  0.37220000  0.81560000  0.07510000  1.0
  C  C642  1  0.42000000  0.61190000  0.19240000  1.0
  C  C643  1  0.45310000  0.57750000  0.16300000  1.0
  C  C644  1  0.38190000  0.58650000  0.23020000  1.0
  C  C645  1  0.37740000  0.79450000  0.26180000  1.0
  C  C646  1  0.34900000  0.87390000  0.31080000  1.0
  C  C647  1  0.30480000  0.83790000  0.34560000  1.0
  C  C648  1  0.29090000  0.87260000  0.38930000  1.0
  C  C649  1  0.24510000  0.92470000  0.37910000  1.0
  C  C650  1  0.28650000  0.95990000  0.34340000  1.0
  C  C651  1  0.30180000  0.92710000  0.29960000  1.0
  C  C652  1  0.35730000  0.00650000  0.26090000  1.0
  C  C653  1  0.39120000  0.03720000  0.22330000  1.0
  C  C654  1  0.40140000  0.09540000  0.22980000  1.0
  C  C655  1  0.42700000  0.12920000  0.19480000  1.0
  C  C656  1  0.44270000  0.10440000  0.15140000  1.0
  C  C657  1  0.43190000  0.04770000  0.14310000  1.0
  C  C658  1  0.40920000  0.01350000  0.18030000  1.0
  C  C659  1  0.44410000  0.02360000  0.09400000  1.0
  C  C660  1  0.36700000  0.99350000  0.07760000  1.0
  C  C661  1  0.46190000  0.07020000  0.05780000  1.0
  C  C662  1  0.51310000  0.98400000  0.09340000  1.0
  C  C663  1  0.43190000  0.18990000  0.20120000  1.0
  C  C664  1  0.39700000  0.21640000  0.23870000  1.0
  C  C665  1  0.39440000  0.27360000  0.24170000  1.0
  C  C666  1  0.46390000  0.28220000  0.17390000  1.0
  C  C667  1  0.46770000  0.22480000  0.16810000  1.0
  C  C668  1  0.37920000  0.52900000  0.23270000  1.0
  C  C669  1  0.45140000  0.51970000  0.16800000  1.0
  C  C670  1  0.32820000  0.38210000  0.12850000  1.0
  C  C671  1  0.29490000  0.37010000  0.08150000  1.0
  C  C672  1  0.34290000  0.37620000  0.04210000  1.0
  C  C673  1  0.31320000  0.36700000  0.99810000  1.0
  C  C674  1  0.23380000  0.35170000  0.99150000  1.0
  C  C675  1  0.18560000  0.34560000  0.03160000  1.0
  C  C676  1  0.21750000  0.35550000  0.07540000  1.0
  C  C677  1  0.20190000  0.34390000  0.94410000  1.0
  C  C678  1  0.25000000  0.32640000  0.90920000  1.0
  C  C679  1  0.22290000  0.32220000  0.86380000  1.0
  C  C680  1  0.14590000  0.33350000  0.85410000  1.0
  C  C681  1  0.09470000  0.34910000  0.88890000  1.0
  C  C682  1  0.12270000  0.35370000  0.93380000  1.0
  C  C683  1  0.12030000  0.33070000  0.80410000  1.0
  C  C684  1  0.61600000  0.40040000  0.19510000  1.0
  C  C685  1  0.64370000  0.38890000  0.14650000  1.0
  C  C686  1  0.72240000  0.37620000  0.13960000  1.0
  C  C687  1  0.75000000  0.36670000  0.09520000  1.0
  C  C688  1  0.70000000  0.36700000  0.05720000  1.0
  C  C689  1  0.62090000  0.37800000  0.06440000  1.0
  C  C690  1  0.59390000  0.38910000  0.10950000  1.0
  C  C691  1  0.73320000  0.35700000  0.00940000  1.0
  C  C692  1  0.80790000  0.37420000  0.99880000  1.0
  C  C693  1  0.84010000  0.36350000  0.95590000  1.0
  C  C694  1  0.79700000  0.33710000  0.92200000  1.0
  C  C695  1  0.72060000  0.32100000  0.93220000  1.0
  C  C696  1  0.69130000  0.32760000  0.97630000  1.0
  C  C697  1  0.08130000  0.05470000  0.70360000  1.0
  C  C698  1  0.07660000  0.11670000  0.70670000  1.0
  C  C699  1  0.11950000  0.14540000  0.73960000  1.0
  C  C700  1  0.11960000  0.20380000  0.73990000  1.0
  C  C701  1  0.03830000  0.20680000  0.67820000  1.0
  C  C702  1  0.03590000  0.14880000  0.67460000  1.0
  C  C703  1  0.14940000  0.45350000  0.73480000  1.0
  C  C704  1  0.15270000  0.51150000  0.73400000  1.0
  C  C705  1  0.09760000  0.54150000  0.71130000  1.0
  C  C706  1  0.03790000  0.51240000  0.69060000  1.0
  C  C707  1  0.03740000  0.45400000  0.69120000  1.0
  C  C708  1  0.10410000  0.60270000  0.70740000  1.0
  C  C709  1  0.13810000  0.63520000  0.74040000  1.0
  C  C710  1  0.14280000  0.69380000  0.73490000  1.0
  C  C711  1  0.11400000  0.72030000  0.69540000  1.0
  C  C712  1  0.07840000  0.68640000  0.65990000  1.0
  C  C713  1  0.07390000  0.62940000  0.66790000  1.0
  C  C714  1  0.04210000  0.71350000  0.61690000  1.0
  C  C715  1  0.10120000  0.75050000  0.59040000  1.0
  C  C716  1  0.97240000  0.74830000  0.63200000  1.0
  C  C717  1  0.01230000  0.66930000  0.58230000  1.0
  C  C718  1  0.18030000  0.72470000  0.77300000  1.0
  C  C719  1  0.22290000  0.80740000  0.81430000  1.0
  C  C720  1  0.24280000  0.77290000  0.85620000  1.0
  C  C721  1  0.27890000  0.81050000  0.89490000  1.0
  C  C722  1  0.22950000  0.86110000  0.90520000  1.0
  C  C723  1  0.21340000  0.89480000  0.86050000  1.0
  C  C724  1  0.16930000  0.85830000  0.82620000  1.0
  C  C725  1  0.13340000  0.93600000  0.77960000  1.0
  C  C726  1  0.10900000  0.96460000  0.73780000  1.0
  C  C727  1  0.10280000  0.02320000  0.74110000  1.0
  C  C728  1  0.06850000  0.02880000  0.66140000  1.0
  C  C729  1  0.07590000  0.97150000  0.65560000  1.0
  C  C730  1  0.09440000  0.93890000  0.69390000  1.0
  C  C731  1  0.06880000  0.94510000  0.60650000  1.0
  C  C732  1  0.14520000  0.91570000  0.59410000  1.0
  C  C733  1  0.05070000  0.98810000  0.56720000  1.0
  C  C734  1  0.00110000  0.90250000  0.60470000  1.0
  C  C735  1  0.83150000  0.32990000  0.87390000  1.0
  C  C736  1  0.58220000  0.79100000  0.32290000  1.0
  C  C737  1  0.56610000  0.75670000  0.36160000  1.0
  C  C738  1  0.56480000  0.69950000  0.35500000  1.0
  C  C739  1  0.58040000  0.67400000  0.31280000  1.0
  C  C740  1  0.59980000  0.70680000  0.27580000  1.0
  C  C741  1  0.60110000  0.76560000  0.28010000  1.0
  C  C742  1  0.55170000  0.78250000  0.40890000  1.0
  C  C743  1  0.48040000  0.82150000  0.40820000  1.0
  C  C744  1  0.53450000  0.73840000  0.44760000  1.0
  C  C745  1  0.62780000  0.81560000  0.42490000  1.0
  C  C746  1  0.58000000  0.61190000  0.30760000  1.0
  C  C747  1  0.54690000  0.57750000  0.33700000  1.0
  C  C748  1  0.61810000  0.58650000  0.26980000  1.0
  C  C749  1  0.62260000  0.79450000  0.23820000  1.0
  C  C750  1  0.65100000  0.87390000  0.18920000  1.0
  C  C751  1  0.69520000  0.83790000  0.15440000  1.0
  C  C752  1  0.70910000  0.87260000  0.11070000  1.0
  C  C753  1  0.75490000  0.92470000  0.12090000  1.0
  C  C754  1  0.71350000  0.95990000  0.15660000  1.0
  C  C755  1  0.69820000  0.92710000  0.20040000  1.0
  C  C756  1  0.64270000  0.00650000  0.23910000  1.0
  C  C757  1  0.60880000  0.03720000  0.27670000  1.0
  C  C758  1  0.59860000  0.09540000  0.27020000  1.0
  C  C759  1  0.57300000  0.12920000  0.30520000  1.0
  C  C760  1  0.55730000  0.10440000  0.34860000  1.0
  C  C761  1  0.56810000  0.04770000  0.35690000  1.0
  C  C762  1  0.59080000  0.01350000  0.31970000  1.0
  C  C763  1  0.55590000  0.02360000  0.40600000  1.0
  C  C764  1  0.63300000  0.99350000  0.42240000  1.0
  C  C765  1  0.53810000  0.07020000  0.44220000  1.0
  C  C766  1  0.48690000  0.98400000  0.40660000  1.0
  C  C767  1  0.56810000  0.18990000  0.29880000  1.0
  C  C768  1  0.60300000  0.21640000  0.26130000  1.0
  C  C769  1  0.60560000  0.27360000  0.25830000  1.0
  C  C770  1  0.53610000  0.28220000  0.32610000  1.0
  C  C771  1  0.53230000  0.22480000  0.33190000  1.0
  C  C772  1  0.62080000  0.52900000  0.26730000  1.0
  C  C773  1  0.54860000  0.51970000  0.33200000  1.0
  C  C774  1  0.67180000  0.38210000  0.37150000  1.0
  C  C775  1  0.70510000  0.37010000  0.41850000  1.0
  C  C776  1  0.65710000  0.37620000  0.45790000  1.0
  C  C777  1  0.68680000  0.36700000  0.50190000  1.0
  C  C778  1  0.76620000  0.35170000  0.50850000  1.0
  C  C779  1  0.81440000  0.34560000  0.46840000  1.0
  C  C780  1  0.78250000  0.35550000  0.42460000  1.0
  C  C781  1  0.79810000  0.34390000  0.55590000  1.0
  C  C782  1  0.75000000  0.32640000  0.59080000  1.0
  C  C783  1  0.77710000  0.32220000  0.63620000  1.0
  C  C784  1  0.85410000  0.33350000  0.64590000  1.0
  C  C785  1  0.90530000  0.34910000  0.61110000  1.0
  C  C786  1  0.87730000  0.35370000  0.56620000  1.0
  C  C787  1  0.87970000  0.33070000  0.69590000  1.0
  C  C788  1  0.38400000  0.40040000  0.30490000  1.0
  C  C789  1  0.35630000  0.38890000  0.35350000  1.0
  C  C790  1  0.27760000  0.37620000  0.36040000  1.0
  C  C791  1  0.25000000  0.36670000  0.40480000  1.0
  C  C792  1  0.30000000  0.36700000  0.44280000  1.0
  C  C793  1  0.37910000  0.37800000  0.43560000  1.0
  C  C794  1  0.40610000  0.38910000  0.39050000  1.0
  C  C795  1  0.26680000  0.35700000  0.49060000  1.0
  C  C796  1  0.19210000  0.37420000  0.50120000  1.0
  C  C797  1  0.15990000  0.36350000  0.54410000  1.0
  C  C798  1  0.20300000  0.33710000  0.57800000  1.0
  C  C799  1  0.27940000  0.32100000  0.56780000  1.0
  C  C800  1  0.30870000  0.32760000  0.52370000  1.0
  C  C801  1  0.91870000  0.05470000  0.79640000  1.0
  C  C802  1  0.92340000  0.11670000  0.79330000  1.0
  C  C803  1  0.88050000  0.14540000  0.76040000  1.0
  C  C804  1  0.88040000  0.20380000  0.76010000  1.0
  C  C805  1  0.96170000  0.20680000  0.82180000  1.0
  C  C806  1  0.96410000  0.14880000  0.82540000  1.0
  C  C807  1  0.85060000  0.45350000  0.76520000  1.0
  C  C808  1  0.84730000  0.51150000  0.76600000  1.0
  C  C809  1  0.90240000  0.54150000  0.78870000  1.0
  C  C810  1  0.96210000  0.51240000  0.80940000  1.0
  C  C811  1  0.96260000  0.45400000  0.80880000  1.0
  C  C812  1  0.89590000  0.60270000  0.79260000  1.0
  C  C813  1  0.86190000  0.63520000  0.75960000  1.0
  C  C814  1  0.85720000  0.69380000  0.76510000  1.0
  C  C815  1  0.88600000  0.72030000  0.80460000  1.0
  C  C816  1  0.92160000  0.68640000  0.84010000  1.0
  C  C817  1  0.92610000  0.62940000  0.83210000  1.0
  C  C818  1  0.95790000  0.71350000  0.88310000  1.0
  C  C819  1  0.89880000  0.75050000  0.90960000  1.0
  C  C820  1  0.02760000  0.74830000  0.86800000  1.0
  C  C821  1  0.98770000  0.66930000  0.91770000  1.0
  C  C822  1  0.81970000  0.72470000  0.72700000  1.0
  C  C823  1  0.77710000  0.80740000  0.68570000  1.0
  C  C824  1  0.75720000  0.77290000  0.64380000  1.0
  C  C825  1  0.72110000  0.81050000  0.60510000  1.0
  C  C826  1  0.77050000  0.86110000  0.59480000  1.0
  C  C827  1  0.78660000  0.89480000  0.63950000  1.0
  C  C828  1  0.83070000  0.85830000  0.67380000  1.0
  C  C829  1  0.86660000  0.93600000  0.72040000  1.0
  C  C830  1  0.89100000  0.96460000  0.76220000  1.0
  C  C831  1  0.89720000  0.02320000  0.75890000  1.0
  C  C832  1  0.93150000  0.02880000  0.83860000  1.0
  C  C833  1  0.92410000  0.97150000  0.84440000  1.0
  C  C834  1  0.90560000  0.93890000  0.80610000  1.0
  C  C835  1  0.93120000  0.94510000  0.89350000  1.0
  C  C836  1  0.85480000  0.91570000  0.90590000  1.0
  C  C837  1  0.94930000  0.98810000  0.93280000  1.0
  C  C838  1  0.99890000  0.90250000  0.89530000  1.0
  C  C839  1  0.16850000  0.32990000  0.62610000  1.0
  N  N840  1  0.63370000  0.15240000  0.76460000  1.0
  N  N841  1  0.65650000  0.04490000  0.76170000  1.0
  N  N842  1  0.57190000  0.69310000  0.70940000  1.0
  N  N843  1  0.58610000  0.50430000  0.70400000  1.0
  N  N844  1  0.91970000  0.76600000  0.20950000  1.0
  N  N845  1  0.90690000  0.57480000  0.21310000  1.0
  N  N846  1  0.81730000  0.22250000  0.27510000  1.0
  N  N847  1  0.85070000  0.11530000  0.28120000  1.0
  N  N848  1  0.36630000  0.15240000  0.73540000  1.0
  N  N849  1  0.34350000  0.04490000  0.73830000  1.0
  N  N850  1  0.42810000  0.69310000  0.79060000  1.0
  N  N851  1  0.41390000  0.50430000  0.79600000  1.0
  N  N852  1  0.08030000  0.76600000  0.29050000  1.0
  N  N853  1  0.09310000  0.57480000  0.28690000  1.0
  N  N854  1  0.18270000  0.22250000  0.22490000  1.0
  N  N855  1  0.14930000  0.11530000  0.21880000  1.0
  N  N856  1  0.36630000  0.84760000  0.26460000  1.0
  N  N857  1  0.34350000  0.95510000  0.26170000  1.0
  N  N858  1  0.42810000  0.30690000  0.20940000  1.0
  N  N859  1  0.41390000  0.49570000  0.20400000  1.0
  N  N860  1  0.08030000  0.23400000  0.70950000  1.0
  N  N861  1  0.09310000  0.42520000  0.71310000  1.0
  N  N862  1  0.18270000  0.77750000  0.77510000  1.0
  N  N863  1  0.14930000  0.88470000  0.78120000  1.0
  N  N864  1  0.63370000  0.84760000  0.23540000  1.0
  N  N865  1  0.65650000  0.95510000  0.23830000  1.0
  N  N866  1  0.57190000  0.30690000  0.29060000  1.0
  N  N867  1  0.58610000  0.49570000  0.29600000  1.0
  N  N868  1  0.91970000  0.23400000  0.79050000  1.0
  N  N869  1  0.90690000  0.42520000  0.78690000  1.0
  N  N870  1  0.81730000  0.77750000  0.72490000  1.0
  N  N871  1  0.85070000  0.88470000  0.71880000  1.0
  O  O872  1  0.58070000  0.15410000  0.67330000  1.0
  O  O873  1  0.59430000  0.04120000  0.67300000  1.0
  O  O874  1  0.71410000  0.62070000  0.66347000  1.0
  O  O875  1  0.59960000  0.60340000  0.62933000  1.0
  O  O876  1  0.82880000  0.67440000  0.27286000  1.0
  O  O877  1  0.45500000  0.59290000  0.70340000  1.0
  O  O878  1  0.33230000  0.59870000  0.72590000  1.0
  O  O879  1  0.88410000  0.22540000  0.19000000  1.0
  O  O880  1  0.90050000  0.11600000  0.19100000  1.0
  O  O881  1  0.09420000  0.66820000  0.37120000  1.0
  O  O882  1  0.21210000  0.67580000  0.34000000  1.0
  O  O883  1  0.95270000  0.66620000  0.29540000  1.0
  O  O884  1  0.41930000  0.15410000  0.82670000  1.0
  O  O885  1  0.40570000  0.04120000  0.82700000  1.0
  O  O886  1  0.28590000  0.62070000  0.83653000  1.0
  O  O887  1  0.40040000  0.60340000  0.87067000  1.0
  O  O888  1  0.17120000  0.67440000  0.22714000  1.0
  O  O889  1  0.54500000  0.59290000  0.79660000  1.0
  O  O890  1  0.66770000  0.59870000  0.77410000  1.0
  O  O891  1  0.11590000  0.22540000  0.31000000  1.0
  O  O892  1  0.09950000  0.11600000  0.30900000  1.0
  O  O893  1  0.90580000  0.66820000  0.12880000  1.0
  O  O894  1  0.78790000  0.67580000  0.16000000  1.0
  O  O895  1  0.04730000  0.66620000  0.20460000  1.0
  O  O896  1  0.50000000  0.08890000  0.75000000  1.0
  O  O897  1  0.00000000  0.18480000  0.25000000  1.0
  O  O898  1  0.41930000  0.84590000  0.17330000  1.0
  O  O899  1  0.40570000  0.95880000  0.17300000  1.0
  O  O900  1  0.28590000  0.37930000  0.16347000  1.0
  O  O901  1  0.40040000  0.39660000  0.12933000  1.0
  O  O902  1  0.17120000  0.32560000  0.77286000  1.0
  O  O903  1  0.54500000  0.40710000  0.20340000  1.0
  O  O904  1  0.66770000  0.40130000  0.22590000  1.0
  O  O905  1  0.11590000  0.77460000  0.69000000  1.0
  O  O906  1  0.09950000  0.88400000  0.69100000  1.0
  O  O907  1  0.90580000  0.33180000  0.87120000  1.0
  O  O908  1  0.78790000  0.32420000  0.84000000  1.0
  O  O909  1  0.04730000  0.33380000  0.79540000  1.0
  O  O910  1  0.58070000  0.84590000  0.32670000  1.0
  O  O911  1  0.59430000  0.95880000  0.32700000  1.0
  O  O912  1  0.71410000  0.37930000  0.33653000  1.0
  O  O913  1  0.59960000  0.39660000  0.37067000  1.0
  O  O914  1  0.82880000  0.32560000  0.72714000  1.0
  O  O915  1  0.45500000  0.40710000  0.29660000  1.0
  O  O916  1  0.33230000  0.40130000  0.27410000  1.0
  O  O917  1  0.88410000  0.77460000  0.81000000  1.0
  O  O918  1  0.90050000  0.88400000  0.80900000  1.0
  O  O919  1  0.09420000  0.33180000  0.62880000  1.0
  O  O920  1  0.21210000  0.32420000  0.66000000  1.0
  O  O921  1  0.95270000  0.33380000  0.70460000  1.0
  O  O922  1  0.50000000  0.91110000  0.25000000  1.0
  O  O923  1  0.00000000  0.81520000  0.75000000  1.0
