# generated using pymatgen
data_LaH9(C3O)6
_symmetry_space_group_name_H-M   'P 1'
_cell_length_a   30.76000000
_cell_length_b   30.76000000
_cell_length_c   16.10300000
_cell_angle_alpha   90.00000000
_cell_angle_beta   90.00000000
_cell_angle_gamma   90.00000000
_symmetry_Int_Tables_number   1
_chemical_formula_structural   LaH9(C3O)6
_chemical_formula_sum   'La32 H288 C576 O192'
_cell_volume   15236.29789280
_cell_formula_units_Z   32
loop_
 _symmetry_equiv_pos_site_id
 _symmetry_equiv_pos_as_xyz
  1  'x, y, z'
loop_
 _atom_site_type_symbol
 _atom_site_label
 _atom_site_symmetry_multiplicity
 _atom_site_fract_x
 _atom_site_fract_y
 _atom_site_fract_z
 _atom_site_occupancy
  La  La0  1  0.02717000  0.73013000  0.87940000  1.0
  La  La1  1  0.97572000  0.73590000  0.62923000  1.0
  La  La2  1  0.52717000  0.23013000  0.37940000  1.0
  La  La3  1  0.47572000  0.23590000  0.12923000  1.0
  La  La4  1  0.47283000  0.76987000  0.37940000  1.0
  La  La5  1  0.52428000  0.76410000  0.12923000  1.0
  La  La6  1  0.97283000  0.26987000  0.87940000  1.0
  La  La7  1  0.02428000  0.26410000  0.62923000  1.0
  La  La8  1  0.26987000  0.52717000  0.12940000  1.0
  La  La9  1  0.26410000  0.47572000  0.87923000  1.0
  La  La10  1  0.76987000  0.02717000  0.62940000  1.0
  La  La11  1  0.76410000  0.97572000  0.37923000  1.0
  La  La12  1  0.23013000  0.97283000  0.62940000  1.0
  La  La13  1  0.23590000  0.02428000  0.37923000  1.0
  La  La14  1  0.73013000  0.47283000  0.12940000  1.0
  La  La15  1  0.73590000  0.52428000  0.87923000  1.0
  La  La16  1  0.02717000  0.26987000  0.37940000  1.0
  La  La17  1  0.97572000  0.26410000  0.12923000  1.0
  La  La18  1  0.52717000  0.76987000  0.87940000  1.0
  La  La19  1  0.47572000  0.76410000  0.62923000  1.0
  La  La20  1  0.47283000  0.23013000  0.87940000  1.0
  La  La21  1  0.52428000  0.23590000  0.62923000  1.0
  La  La22  1  0.97283000  0.73013000  0.37940000  1.0
  La  La23  1  0.02428000  0.73590000  0.12923000  1.0
  La  La24  1  0.26987000  0.47283000  0.62940000  1.0
  La  La25  1  0.26410000  0.52428000  0.37923000  1.0
  La  La26  1  0.76987000  0.97283000  0.12940000  1.0
  La  La27  1  0.76410000  0.02428000  0.87923000  1.0
  La  La28  1  0.23013000  0.02717000  0.12940000  1.0
  La  La29  1  0.23590000  0.97572000  0.87923000  1.0
  La  La30  1  0.73013000  0.52717000  0.62940000  1.0
  La  La31  1  0.73590000  0.47572000  0.37923000  1.0
  H  H32  1  0.09730000  0.61270000  0.73550000  1.0
  H  H33  1  0.14570000  0.56020000  0.69220000  1.0
  H  H34  1  0.27780000  0.60360000  0.79430000  1.0
  H  H35  1  0.30120000  0.66160000  0.87260000  1.0
  H  H36  1  0.25320000  0.71300000  0.92480000  1.0
  H  H37  1  0.18080000  0.71100000  0.88220000  1.0
  H  H38  1  0.83940000  0.65810000  0.56470000  1.0
  H  H39  1  0.79260000  0.60360000  0.52280000  1.0
  H  H40  1  0.88070000  0.50830000  0.36980000  1.0
  H  H41  1  0.95220000  0.50480000  0.33770000  1.0
  H  H42  1  0.00030000  0.55930000  0.38210000  1.0
  H  H43  1  0.97500000  0.61570000  0.46290000  1.0
  H  H44  1  0.87420000  0.67110000  0.86120000  1.0
  H  H45  1  0.81660000  0.62510000  0.82540000  1.0
  H  H46  1  0.87940000  0.52210000  0.64700000  1.0
  H  H47  1  0.94790000  0.50970000  0.60450000  1.0
  H  H48  1  0.00550000  0.55520000  0.63790000  1.0
  H  H49  1  0.99230000  0.61310000  0.72410000  1.0
  H  H50  1  0.59730000  0.11270000  0.23550000  1.0
  H  H51  1  0.64570000  0.06020000  0.19220000  1.0
  H  H52  1  0.77780000  0.10360000  0.29430000  1.0
  H  H53  1  0.80120000  0.16160000  0.37260000  1.0
  H  H54  1  0.75320000  0.21300000  0.42480000  1.0
  H  H55  1  0.68080000  0.21100000  0.38220000  1.0
  H  H56  1  0.33940000  0.15810000  0.06470000  1.0
  H  H57  1  0.29260000  0.10360000  0.02280000  1.0
  H  H58  1  0.38070000  0.00830000  0.86980000  1.0
  H  H59  1  0.45220000  0.00480000  0.83770000  1.0
  H  H60  1  0.50030000  0.05930000  0.88210000  1.0
  H  H61  1  0.47500000  0.11570000  0.96290000  1.0
  H  H62  1  0.37420000  0.17110000  0.36120000  1.0
  H  H63  1  0.31660000  0.12510000  0.32540000  1.0
  H  H64  1  0.37940000  0.02210000  0.14700000  1.0
  H  H65  1  0.44790000  0.00970000  0.10450000  1.0
  H  H66  1  0.50550000  0.05520000  0.13790000  1.0
  H  H67  1  0.49230000  0.11310000  0.22410000  1.0
  H  H68  1  0.40270000  0.88730000  0.23550000  1.0
  H  H69  1  0.35430000  0.93980000  0.19220000  1.0
  H  H70  1  0.22220000  0.89640000  0.29430000  1.0
  H  H71  1  0.19880000  0.83840000  0.37260000  1.0
  H  H72  1  0.24680000  0.78700000  0.42480000  1.0
  H  H73  1  0.31920000  0.78900000  0.38220000  1.0
  H  H74  1  0.66060000  0.84190000  0.06470000  1.0
  H  H75  1  0.70740000  0.89640000  0.02280000  1.0
  H  H76  1  0.61930000  0.99170000  0.86980000  1.0
  H  H77  1  0.54780000  0.99520000  0.83770000  1.0
  H  H78  1  0.49970000  0.94070000  0.88210000  1.0
  H  H79  1  0.52500000  0.88430000  0.96290000  1.0
  H  H80  1  0.62580000  0.82890000  0.36120000  1.0
  H  H81  1  0.68340000  0.87490000  0.32540000  1.0
  H  H82  1  0.62060000  0.97790000  0.14700000  1.0
  H  H83  1  0.55210000  0.99030000  0.10450000  1.0
  H  H84  1  0.49450000  0.94480000  0.13790000  1.0
  H  H85  1  0.50770000  0.88690000  0.22410000  1.0
  H  H86  1  0.90270000  0.38730000  0.73550000  1.0
  H  H87  1  0.85430000  0.43980000  0.69220000  1.0
  H  H88  1  0.72220000  0.39640000  0.79430000  1.0
  H  H89  1  0.69880000  0.33840000  0.87260000  1.0
  H  H90  1  0.74680000  0.28700000  0.92480000  1.0
  H  H91  1  0.81920000  0.28900000  0.88220000  1.0
  H  H92  1  0.16060000  0.34190000  0.56470000  1.0
  H  H93  1  0.20740000  0.39640000  0.52280000  1.0
  H  H94  1  0.11930000  0.49170000  0.36980000  1.0
  H  H95  1  0.04780000  0.49520000  0.33770000  1.0
  H  H96  1  0.99970000  0.44070000  0.38210000  1.0
  H  H97  1  0.02500000  0.38430000  0.46290000  1.0
  H  H98  1  0.12580000  0.32890000  0.86120000  1.0
  H  H99  1  0.18340000  0.37490000  0.82540000  1.0
  H  H100  1  0.12060000  0.47790000  0.64700000  1.0
  H  H101  1  0.05210000  0.49030000  0.60450000  1.0
  H  H102  1  0.99450000  0.44480000  0.63790000  1.0
  H  H103  1  0.00770000  0.38690000  0.72410000  1.0
  H  H104  1  0.38730000  0.59730000  0.98550000  1.0
  H  H105  1  0.43980000  0.64570000  0.94220000  1.0
  H  H106  1  0.39640000  0.77780000  0.04430000  1.0
  H  H107  1  0.33840000  0.80120000  0.12260000  1.0
  H  H108  1  0.28700000  0.75320000  0.17480000  1.0
  H  H109  1  0.28900000  0.68080000  0.13220000  1.0
  H  H110  1  0.34190000  0.33940000  0.81470000  1.0
  H  H111  1  0.39640000  0.29260000  0.77280000  1.0
  H  H112  1  0.49170000  0.38070000  0.61980000  1.0
  H  H113  1  0.49520000  0.45220000  0.58770000  1.0
  H  H114  1  0.44070000  0.50030000  0.63210000  1.0
  H  H115  1  0.38430000  0.47500000  0.71290000  1.0
  H  H116  1  0.32890000  0.37420000  0.11120000  1.0
  H  H117  1  0.37490000  0.31660000  0.07540000  1.0
  H  H118  1  0.47790000  0.37940000  0.89700000  1.0
  H  H119  1  0.49030000  0.44790000  0.85450000  1.0
  H  H120  1  0.44480000  0.50550000  0.88790000  1.0
  H  H121  1  0.38690000  0.49230000  0.97410000  1.0
  H  H122  1  0.88730000  0.09730000  0.48550000  1.0
  H  H123  1  0.93980000  0.14570000  0.44220000  1.0
  H  H124  1  0.89640000  0.27780000  0.54430000  1.0
  H  H125  1  0.83840000  0.30120000  0.62260000  1.0
  H  H126  1  0.78700000  0.25320000  0.67480000  1.0
  H  H127  1  0.78900000  0.18080000  0.63220000  1.0
  H  H128  1  0.84190000  0.83940000  0.31470000  1.0
  H  H129  1  0.89640000  0.79260000  0.27280000  1.0
  H  H130  1  0.99170000  0.88070000  0.11980000  1.0
  H  H131  1  0.99520000  0.95220000  0.08770000  1.0
  H  H132  1  0.94070000  0.00030000  0.13210000  1.0
  H  H133  1  0.88430000  0.97500000  0.21290000  1.0
  H  H134  1  0.82890000  0.87420000  0.61120000  1.0
  H  H135  1  0.87490000  0.81660000  0.57540000  1.0
  H  H136  1  0.97790000  0.87940000  0.39700000  1.0
  H  H137  1  0.99030000  0.94790000  0.35450000  1.0
  H  H138  1  0.94480000  0.00550000  0.38790000  1.0
  H  H139  1  0.88690000  0.99230000  0.47410000  1.0
  H  H140  1  0.11270000  0.90270000  0.48550000  1.0
  H  H141  1  0.06020000  0.85430000  0.44220000  1.0
  H  H142  1  0.10360000  0.72220000  0.54430000  1.0
  H  H143  1  0.16160000  0.69880000  0.62260000  1.0
  H  H144  1  0.21300000  0.74680000  0.67480000  1.0
  H  H145  1  0.21100000  0.81920000  0.63220000  1.0
  H  H146  1  0.15810000  0.16060000  0.31470000  1.0
  H  H147  1  0.10360000  0.20740000  0.27280000  1.0
  H  H148  1  0.00830000  0.11930000  0.11980000  1.0
  H  H149  1  0.00480000  0.04780000  0.08770000  1.0
  H  H150  1  0.05930000  0.99970000  0.13210000  1.0
  H  H151  1  0.11570000  0.02500000  0.21290000  1.0
  H  H152  1  0.17110000  0.12580000  0.61120000  1.0
  H  H153  1  0.12510000  0.18340000  0.57540000  1.0
  H  H154  1  0.02210000  0.12060000  0.39700000  1.0
  H  H155  1  0.00970000  0.05210000  0.35450000  1.0
  H  H156  1  0.05520000  0.99450000  0.38790000  1.0
  H  H157  1  0.11310000  0.00770000  0.47410000  1.0
  H  H158  1  0.61270000  0.40270000  0.98550000  1.0
  H  H159  1  0.56020000  0.35430000  0.94220000  1.0
  H  H160  1  0.60360000  0.22220000  0.04430000  1.0
  H  H161  1  0.66160000  0.19880000  0.12260000  1.0
  H  H162  1  0.71300000  0.24680000  0.17480000  1.0
  H  H163  1  0.71100000  0.31920000  0.13220000  1.0
  H  H164  1  0.65810000  0.66060000  0.81470000  1.0
  H  H165  1  0.60360000  0.70740000  0.77280000  1.0
  H  H166  1  0.50830000  0.61930000  0.61980000  1.0
  H  H167  1  0.50480000  0.54780000  0.58770000  1.0
  H  H168  1  0.55930000  0.49970000  0.63210000  1.0
  H  H169  1  0.61570000  0.52500000  0.71290000  1.0
  H  H170  1  0.67110000  0.62580000  0.11120000  1.0
  H  H171  1  0.62510000  0.68340000  0.07540000  1.0
  H  H172  1  0.52210000  0.62060000  0.89700000  1.0
  H  H173  1  0.50970000  0.55210000  0.85450000  1.0
  H  H174  1  0.55520000  0.49450000  0.88790000  1.0
  H  H175  1  0.61310000  0.50770000  0.97410000  1.0
  H  H176  1  0.09730000  0.38730000  0.23550000  1.0
  H  H177  1  0.14570000  0.43980000  0.19220000  1.0
  H  H178  1  0.27780000  0.39640000  0.29430000  1.0
  H  H179  1  0.30120000  0.33840000  0.37260000  1.0
  H  H180  1  0.25320000  0.28700000  0.42480000  1.0
  H  H181  1  0.18080000  0.28900000  0.38220000  1.0
  H  H182  1  0.83940000  0.34190000  0.06470000  1.0
  H  H183  1  0.79260000  0.39640000  0.02280000  1.0
  H  H184  1  0.88070000  0.49170000  0.86980000  1.0
  H  H185  1  0.95220000  0.49520000  0.83770000  1.0
  H  H186  1  0.00030000  0.44070000  0.88210000  1.0
  H  H187  1  0.97500000  0.38430000  0.96290000  1.0
  H  H188  1  0.87420000  0.32890000  0.36120000  1.0
  H  H189  1  0.81660000  0.37490000  0.32540000  1.0
  H  H190  1  0.87940000  0.47790000  0.14700000  1.0
  H  H191  1  0.94790000  0.49030000  0.10450000  1.0
  H  H192  1  0.00550000  0.44480000  0.13790000  1.0
  H  H193  1  0.99230000  0.38690000  0.22410000  1.0
  H  H194  1  0.59730000  0.88730000  0.73550000  1.0
  H  H195  1  0.64570000  0.93980000  0.69220000  1.0
  H  H196  1  0.77780000  0.89640000  0.79430000  1.0
  H  H197  1  0.80120000  0.83840000  0.87260000  1.0
  H  H198  1  0.75320000  0.78700000  0.92480000  1.0
  H  H199  1  0.68080000  0.78900000  0.88220000  1.0
  H  H200  1  0.33940000  0.84190000  0.56470000  1.0
  H  H201  1  0.29260000  0.89640000  0.52280000  1.0
  H  H202  1  0.38070000  0.99170000  0.36980000  1.0
  H  H203  1  0.45220000  0.99520000  0.33770000  1.0
  H  H204  1  0.50030000  0.94070000  0.38210000  1.0
  H  H205  1  0.47500000  0.88430000  0.46290000  1.0
  H  H206  1  0.37420000  0.82890000  0.86120000  1.0
  H  H207  1  0.31660000  0.87490000  0.82540000  1.0
  H  H208  1  0.37940000  0.97790000  0.64700000  1.0
  H  H209  1  0.44790000  0.99030000  0.60450000  1.0
  H  H210  1  0.50550000  0.94480000  0.63790000  1.0
  H  H211  1  0.49230000  0.88690000  0.72410000  1.0
  H  H212  1  0.40270000  0.11270000  0.73550000  1.0
  H  H213  1  0.35430000  0.06020000  0.69220000  1.0
  H  H214  1  0.22220000  0.10360000  0.79430000  1.0
  H  H215  1  0.19880000  0.16160000  0.87260000  1.0
  H  H216  1  0.24680000  0.21300000  0.92480000  1.0
  H  H217  1  0.31920000  0.21100000  0.88220000  1.0
  H  H218  1  0.66060000  0.15810000  0.56470000  1.0
  H  H219  1  0.70740000  0.10360000  0.52280000  1.0
  H  H220  1  0.61930000  0.00830000  0.36980000  1.0
  H  H221  1  0.54780000  0.00480000  0.33770000  1.0
  H  H222  1  0.49970000  0.05930000  0.38210000  1.0
  H  H223  1  0.52500000  0.11570000  0.46290000  1.0
  H  H224  1  0.62580000  0.17110000  0.86120000  1.0
  H  H225  1  0.68340000  0.12510000  0.82540000  1.0
  H  H226  1  0.62060000  0.02210000  0.64700000  1.0
  H  H227  1  0.55210000  0.00970000  0.60450000  1.0
  H  H228  1  0.49450000  0.05520000  0.63790000  1.0
  H  H229  1  0.50770000  0.11310000  0.72410000  1.0
  H  H230  1  0.90270000  0.61270000  0.23550000  1.0
  H  H231  1  0.85430000  0.56020000  0.19220000  1.0
  H  H232  1  0.72220000  0.60360000  0.29430000  1.0
  H  H233  1  0.69880000  0.66160000  0.37260000  1.0
  H  H234  1  0.74680000  0.71300000  0.42480000  1.0
  H  H235  1  0.81920000  0.71100000  0.38220000  1.0
  H  H236  1  0.16060000  0.65810000  0.06470000  1.0
  H  H237  1  0.20740000  0.60360000  0.02280000  1.0
  H  H238  1  0.11930000  0.50830000  0.86980000  1.0
  H  H239  1  0.04780000  0.50480000  0.83770000  1.0
  H  H240  1  0.99970000  0.55930000  0.88210000  1.0
  H  H241  1  0.02500000  0.61570000  0.96290000  1.0
  H  H242  1  0.12580000  0.67110000  0.36120000  1.0
  H  H243  1  0.18340000  0.62510000  0.32540000  1.0
  H  H244  1  0.12060000  0.52210000  0.14700000  1.0
  H  H245  1  0.05210000  0.50970000  0.10450000  1.0
  H  H246  1  0.99450000  0.55520000  0.13790000  1.0
  H  H247  1  0.00770000  0.61310000  0.22410000  1.0
  H  H248  1  0.38730000  0.40270000  0.48550000  1.0
  H  H249  1  0.43980000  0.35430000  0.44220000  1.0
  H  H250  1  0.39640000  0.22220000  0.54430000  1.0
  H  H251  1  0.33840000  0.19880000  0.62260000  1.0
  H  H252  1  0.28700000  0.24680000  0.67480000  1.0
  H  H253  1  0.28900000  0.31920000  0.63220000  1.0
  H  H254  1  0.34190000  0.66060000  0.31470000  1.0
  H  H255  1  0.39640000  0.70740000  0.27280000  1.0
  H  H256  1  0.49170000  0.61930000  0.11980000  1.0
  H  H257  1  0.49520000  0.54780000  0.08770000  1.0
  H  H258  1  0.44070000  0.49970000  0.13210000  1.0
  H  H259  1  0.38430000  0.52500000  0.21290000  1.0
  H  H260  1  0.32890000  0.62580000  0.61120000  1.0
  H  H261  1  0.37490000  0.68340000  0.57540000  1.0
  H  H262  1  0.47790000  0.62060000  0.39700000  1.0
  H  H263  1  0.49030000  0.55210000  0.35450000  1.0
  H  H264  1  0.44480000  0.49450000  0.38790000  1.0
  H  H265  1  0.38690000  0.50770000  0.47410000  1.0
  H  H266  1  0.88730000  0.90270000  0.98550000  1.0
  H  H267  1  0.93980000  0.85430000  0.94220000  1.0
  H  H268  1  0.89640000  0.72220000  0.04430000  1.0
  H  H269  1  0.83840000  0.69880000  0.12260000  1.0
  H  H270  1  0.78700000  0.74680000  0.17480000  1.0
  H  H271  1  0.78900000  0.81920000  0.13220000  1.0
  H  H272  1  0.84190000  0.16060000  0.81470000  1.0
  H  H273  1  0.89640000  0.20740000  0.77280000  1.0
  H  H274  1  0.99170000  0.11930000  0.61980000  1.0
  H  H275  1  0.99520000  0.04780000  0.58770000  1.0
  H  H276  1  0.94070000  0.99970000  0.63210000  1.0
  H  H277  1  0.88430000  0.02500000  0.71290000  1.0
  H  H278  1  0.82890000  0.12580000  0.11120000  1.0
  H  H279  1  0.87490000  0.18340000  0.07540000  1.0
  H  H280  1  0.97790000  0.12060000  0.89700000  1.0
  H  H281  1  0.99030000  0.05210000  0.85450000  1.0
  H  H282  1  0.94480000  0.99450000  0.88790000  1.0
  H  H283  1  0.88690000  0.00770000  0.97410000  1.0
  H  H284  1  0.11270000  0.09730000  0.98550000  1.0
  H  H285  1  0.06020000  0.14570000  0.94220000  1.0
  H  H286  1  0.10360000  0.27780000  0.04430000  1.0
  H  H287  1  0.16160000  0.30120000  0.12260000  1.0
  H  H288  1  0.21300000  0.25320000  0.17480000  1.0
  H  H289  1  0.21100000  0.18080000  0.13220000  1.0
  H  H290  1  0.15810000  0.83940000  0.81470000  1.0
  H  H291  1  0.10360000  0.79260000  0.77280000  1.0
  H  H292  1  0.00830000  0.88070000  0.61980000  1.0
  H  H293  1  0.00480000  0.95220000  0.58770000  1.0
  H  H294  1  0.05930000  0.00030000  0.63210000  1.0
  H  H295  1  0.11570000  0.97500000  0.71290000  1.0
  H  H296  1  0.17110000  0.87420000  0.11120000  1.0
  H  H297  1  0.12510000  0.81660000  0.07540000  1.0
  H  H298  1  0.02210000  0.87940000  0.89700000  1.0
  H  H299  1  0.00970000  0.94790000  0.85450000  1.0
  H  H300  1  0.05520000  0.00550000  0.88790000  1.0
  H  H301  1  0.11310000  0.99230000  0.97410000  1.0
  H  H302  1  0.61270000  0.59730000  0.48550000  1.0
  H  H303  1  0.56020000  0.64570000  0.44220000  1.0
  H  H304  1  0.60360000  0.77780000  0.54430000  1.0
  H  H305  1  0.66160000  0.80120000  0.62260000  1.0
  H  H306  1  0.71300000  0.75320000  0.67480000  1.0
  H  H307  1  0.71100000  0.68080000  0.63220000  1.0
  H  H308  1  0.65810000  0.33940000  0.31470000  1.0
  H  H309  1  0.60360000  0.29260000  0.27280000  1.0
  H  H310  1  0.50830000  0.38070000  0.11980000  1.0
  H  H311  1  0.50480000  0.45220000  0.08770000  1.0
  H  H312  1  0.55930000  0.50030000  0.13210000  1.0
  H  H313  1  0.61570000  0.47500000  0.21290000  1.0
  H  H314  1  0.67110000  0.37420000  0.61120000  1.0
  H  H315  1  0.62510000  0.31660000  0.57540000  1.0
  H  H316  1  0.52210000  0.37940000  0.39700000  1.0
  H  H317  1  0.50970000  0.44790000  0.35450000  1.0
  H  H318  1  0.55520000  0.50550000  0.38790000  1.0
  H  H319  1  0.61310000  0.49230000  0.47410000  1.0
  C  C320  1  0.10370000  0.68210000  0.81850000  1.0
  C  C321  1  0.13950000  0.65140000  0.79350000  1.0
  C  C322  1  0.12660000  0.61570000  0.74890000  1.0
  C  C323  1  0.15570000  0.58370000  0.72300000  1.0
  C  C324  1  0.19910000  0.58680000  0.74270000  1.0
  C  C325  1  0.22840000  0.55210000  0.70910000  1.0
  C  C326  1  0.21400000  0.62150000  0.79260000  1.0
  C  C327  1  0.25820000  0.62450000  0.81250000  1.0
  C  C328  1  0.27180000  0.65920000  0.85990000  1.0
  C  C329  1  0.24340000  0.69110000  0.88960000  1.0
  C  C330  1  0.19980000  0.68920000  0.86500000  1.0
  C  C331  1  0.18400000  0.65520000  0.81510000  1.0
  C  C332  1  0.92020000  0.67040000  0.54470000  1.0
  C  C333  1  0.89400000  0.63360000  0.51350000  1.0
  C  C334  1  0.85020000  0.63480000  0.53420000  1.0
  C  C335  1  0.82200000  0.60150000  0.50990000  1.0
  C  C336  1  0.83690000  0.56570000  0.46740000  1.0
  C  C337  1  0.80480000  0.53010000  0.45020000  1.0
  C  C338  1  0.88150000  0.56370000  0.44080000  1.0
  C  C339  1  0.89920000  0.52980000  0.38970000  1.0
  C  C340  1  0.94190000  0.52790000  0.36950000  1.0
  C  C341  1  0.97110000  0.56060000  0.39650000  1.0
  C  C342  1  0.95570000  0.59460000  0.44430000  1.0
  C  C343  1  0.91080000  0.59780000  0.46600000  1.0
  C  C344  1  0.95600000  0.67010000  0.81790000  1.0
  C  C345  1  0.91990000  0.63960000  0.79480000  1.0
  C  C346  1  0.87890000  0.64770000  0.82590000  1.0
  C  C347  1  0.84410000  0.61990000  0.80350000  1.0
  C  C348  1  0.84960000  0.58550000  0.75060000  1.0
  C  C349  1  0.80890000  0.56200000  0.72410000  1.0
  C  C350  1  0.89230000  0.57530000  0.71710000  1.0
  C  C351  1  0.90160000  0.54060000  0.66420000  1.0
  C  C352  1  0.94260000  0.53380000  0.63810000  1.0
  C  C353  1  0.97780000  0.56060000  0.65830000  1.0
  C  C354  1  0.96950000  0.59490000  0.70910000  1.0
  C  C355  1  0.92720000  0.60380000  0.74000000  1.0
  C  C356  1  0.60370000  0.18210000  0.31850000  1.0
  C  C357  1  0.63950000  0.15140000  0.29350000  1.0
  C  C358  1  0.62660000  0.11570000  0.24890000  1.0
  C  C359  1  0.65570000  0.08370000  0.22300000  1.0
  C  C360  1  0.69910000  0.08680000  0.24270000  1.0
  C  C361  1  0.72840000  0.05210000  0.20910000  1.0
  C  C362  1  0.71400000  0.12150000  0.29260000  1.0
  C  C363  1  0.75820000  0.12450000  0.31250000  1.0
  C  C364  1  0.77180000  0.15920000  0.35990000  1.0
  C  C365  1  0.74340000  0.19110000  0.38960000  1.0
  C  C366  1  0.69980000  0.18920000  0.36500000  1.0
  C  C367  1  0.68400000  0.15520000  0.31510000  1.0
  C  C368  1  0.42020000  0.17040000  0.04470000  1.0
  C  C369  1  0.39400000  0.13360000  0.01350000  1.0
  C  C370  1  0.35020000  0.13480000  0.03420000  1.0
  C  C371  1  0.32200000  0.10150000  0.00990000  1.0
  C  C372  1  0.33690000  0.06570000  0.96740000  1.0
  C  C373  1  0.30480000  0.03010000  0.95020000  1.0
  C  C374  1  0.38150000  0.06370000  0.94080000  1.0
  C  C375  1  0.39920000  0.02980000  0.88970000  1.0
  C  C376  1  0.44190000  0.02790000  0.86950000  1.0
  C  C377  1  0.47110000  0.06060000  0.89650000  1.0
  C  C378  1  0.45570000  0.09460000  0.94430000  1.0
  C  C379  1  0.41080000  0.09780000  0.96600000  1.0
  C  C380  1  0.45600000  0.17010000  0.31790000  1.0
  C  C381  1  0.41990000  0.13960000  0.29480000  1.0
  C  C382  1  0.37890000  0.14770000  0.32590000  1.0
  C  C383  1  0.34410000  0.11990000  0.30350000  1.0
  C  C384  1  0.34960000  0.08550000  0.25060000  1.0
  C  C385  1  0.30890000  0.06200000  0.22410000  1.0
  C  C386  1  0.39230000  0.07530000  0.21710000  1.0
  C  C387  1  0.40160000  0.04060000  0.16420000  1.0
  C  C388  1  0.44260000  0.03380000  0.13810000  1.0
  C  C389  1  0.47780000  0.06060000  0.15830000  1.0
  C  C390  1  0.46950000  0.09490000  0.20910000  1.0
  C  C391  1  0.42720000  0.10380000  0.24000000  1.0
  C  C392  1  0.39630000  0.81790000  0.31850000  1.0
  C  C393  1  0.36050000  0.84860000  0.29350000  1.0
  C  C394  1  0.37340000  0.88430000  0.24890000  1.0
  C  C395  1  0.34430000  0.91630000  0.22300000  1.0
  C  C396  1  0.30090000  0.91320000  0.24270000  1.0
  C  C397  1  0.27160000  0.94790000  0.20910000  1.0
  C  C398  1  0.28600000  0.87850000  0.29260000  1.0
  C  C399  1  0.24180000  0.87550000  0.31250000  1.0
  C  C400  1  0.22820000  0.84080000  0.35990000  1.0
  C  C401  1  0.25660000  0.80890000  0.38960000  1.0
  C  C402  1  0.30020000  0.81080000  0.36500000  1.0
  C  C403  1  0.31600000  0.84480000  0.31510000  1.0
  C  C404  1  0.57980000  0.82960000  0.04470000  1.0
  C  C405  1  0.60600000  0.86640000  0.01350000  1.0
  C  C406  1  0.64980000  0.86520000  0.03420000  1.0
  C  C407  1  0.67800000  0.89850000  0.00990000  1.0
  C  C408  1  0.66310000  0.93430000  0.96740000  1.0
  C  C409  1  0.69520000  0.96990000  0.95020000  1.0
  C  C410  1  0.61850000  0.93630000  0.94080000  1.0
  C  C411  1  0.60080000  0.97020000  0.88970000  1.0
  C  C412  1  0.55810000  0.97210000  0.86950000  1.0
  C  C413  1  0.52890000  0.93940000  0.89650000  1.0
  C  C414  1  0.54430000  0.90540000  0.94430000  1.0
  C  C415  1  0.58920000  0.90220000  0.96600000  1.0
  C  C416  1  0.54400000  0.82990000  0.31790000  1.0
  C  C417  1  0.58010000  0.86040000  0.29480000  1.0
  C  C418  1  0.62110000  0.85230000  0.32590000  1.0
  C  C419  1  0.65590000  0.88010000  0.30350000  1.0
  C  C420  1  0.65040000  0.91450000  0.25060000  1.0
  C  C421  1  0.69110000  0.93800000  0.22410000  1.0
  C  C422  1  0.60770000  0.92470000  0.21710000  1.0
  C  C423  1  0.59840000  0.95940000  0.16420000  1.0
  C  C424  1  0.55740000  0.96620000  0.13810000  1.0
  C  C425  1  0.52220000  0.93940000  0.15830000  1.0
  C  C426  1  0.53050000  0.90510000  0.20910000  1.0
  C  C427  1  0.57280000  0.89620000  0.24000000  1.0
  C  C428  1  0.89630000  0.31790000  0.81850000  1.0
  C  C429  1  0.86050000  0.34860000  0.79350000  1.0
  C  C430  1  0.87340000  0.38430000  0.74890000  1.0
  C  C431  1  0.84430000  0.41630000  0.72300000  1.0
  C  C432  1  0.80090000  0.41320000  0.74270000  1.0
  C  C433  1  0.77160000  0.44790000  0.70910000  1.0
  C  C434  1  0.78600000  0.37850000  0.79260000  1.0
  C  C435  1  0.74180000  0.37550000  0.81250000  1.0
  C  C436  1  0.72820000  0.34080000  0.85990000  1.0
  C  C437  1  0.75660000  0.30890000  0.88960000  1.0
  C  C438  1  0.80020000  0.31080000  0.86500000  1.0
  C  C439  1  0.81600000  0.34480000  0.81510000  1.0
  C  C440  1  0.07980000  0.32960000  0.54470000  1.0
  C  C441  1  0.10600000  0.36640000  0.51350000  1.0
  C  C442  1  0.14980000  0.36520000  0.53420000  1.0
  C  C443  1  0.17800000  0.39850000  0.50990000  1.0
  C  C444  1  0.16310000  0.43430000  0.46740000  1.0
  C  C445  1  0.19520000  0.46990000  0.45020000  1.0
  C  C446  1  0.11850000  0.43630000  0.44080000  1.0
  C  C447  1  0.10080000  0.47020000  0.38970000  1.0
  C  C448  1  0.05810000  0.47210000  0.36950000  1.0
  C  C449  1  0.02890000  0.43940000  0.39650000  1.0
  C  C450  1  0.04430000  0.40540000  0.44430000  1.0
  C  C451  1  0.08920000  0.40220000  0.46600000  1.0
  C  C452  1  0.04400000  0.32990000  0.81790000  1.0
  C  C453  1  0.08010000  0.36040000  0.79480000  1.0
  C  C454  1  0.12110000  0.35230000  0.82590000  1.0
  C  C455  1  0.15590000  0.38010000  0.80350000  1.0
  C  C456  1  0.15040000  0.41450000  0.75060000  1.0
  C  C457  1  0.19110000  0.43800000  0.72410000  1.0
  C  C458  1  0.10770000  0.42470000  0.71710000  1.0
  C  C459  1  0.09840000  0.45940000  0.66420000  1.0
  C  C460  1  0.05740000  0.46620000  0.63810000  1.0
  C  C461  1  0.02220000  0.43940000  0.65830000  1.0
  C  C462  1  0.03050000  0.40510000  0.70910000  1.0
  C  C463  1  0.07280000  0.39620000  0.74000000  1.0
  C  C464  1  0.31790000  0.60370000  0.06850000  1.0
  C  C465  1  0.34860000  0.63950000  0.04350000  1.0
  C  C466  1  0.38430000  0.62660000  0.99890000  1.0
  C  C467  1  0.41630000  0.65570000  0.97300000  1.0
  C  C468  1  0.41320000  0.69910000  0.99270000  1.0
  C  C469  1  0.44790000  0.72840000  0.95910000  1.0
  C  C470  1  0.37850000  0.71400000  0.04260000  1.0
  C  C471  1  0.37550000  0.75820000  0.06250000  1.0
  C  C472  1  0.34080000  0.77180000  0.10990000  1.0
  C  C473  1  0.30890000  0.74340000  0.13960000  1.0
  C  C474  1  0.31080000  0.69980000  0.11500000  1.0
  C  C475  1  0.34480000  0.68400000  0.06510000  1.0
  C  C476  1  0.32960000  0.42020000  0.79470000  1.0
  C  C477  1  0.36640000  0.39400000  0.76350000  1.0
  C  C478  1  0.36520000  0.35020000  0.78420000  1.0
  C  C479  1  0.39850000  0.32200000  0.75990000  1.0
  C  C480  1  0.43430000  0.33690000  0.71740000  1.0
  C  C481  1  0.46990000  0.30480000  0.70020000  1.0
  C  C482  1  0.43630000  0.38150000  0.69080000  1.0
  C  C483  1  0.47020000  0.39920000  0.63970000  1.0
  C  C484  1  0.47210000  0.44190000  0.61950000  1.0
  C  C485  1  0.43940000  0.47110000  0.64650000  1.0
  C  C486  1  0.40540000  0.45570000  0.69430000  1.0
  C  C487  1  0.40220000  0.41080000  0.71600000  1.0
  C  C488  1  0.32990000  0.45600000  0.06790000  1.0
  C  C489  1  0.36040000  0.41990000  0.04480000  1.0
  C  C490  1  0.35230000  0.37890000  0.07590000  1.0
  C  C491  1  0.38010000  0.34410000  0.05350000  1.0
  C  C492  1  0.41450000  0.34960000  0.00060000  1.0
  C  C493  1  0.43800000  0.30890000  0.97410000  1.0
  C  C494  1  0.42470000  0.39230000  0.96710000  1.0
  C  C495  1  0.45940000  0.40160000  0.91420000  1.0
  C  C496  1  0.46620000  0.44260000  0.88810000  1.0
  C  C497  1  0.43940000  0.47780000  0.90830000  1.0
  C  C498  1  0.40510000  0.46950000  0.95910000  1.0
  C  C499  1  0.39620000  0.42720000  0.99000000  1.0
  C  C500  1  0.81790000  0.10370000  0.56850000  1.0
  C  C501  1  0.84860000  0.13950000  0.54350000  1.0
  C  C502  1  0.88430000  0.12660000  0.49890000  1.0
  C  C503  1  0.91630000  0.15570000  0.47300000  1.0
  C  C504  1  0.91320000  0.19910000  0.49270000  1.0
  C  C505  1  0.94790000  0.22840000  0.45910000  1.0
  C  C506  1  0.87850000  0.21400000  0.54260000  1.0
  C  C507  1  0.87550000  0.25820000  0.56250000  1.0
  C  C508  1  0.84080000  0.27180000  0.60990000  1.0
  C  C509  1  0.80890000  0.24340000  0.63960000  1.0
  C  C510  1  0.81080000  0.19980000  0.61500000  1.0
  C  C511  1  0.84480000  0.18400000  0.56510000  1.0
  C  C512  1  0.82960000  0.92020000  0.29470000  1.0
  C  C513  1  0.86640000  0.89400000  0.26350000  1.0
  C  C514  1  0.86520000  0.85020000  0.28420000  1.0
  C  C515  1  0.89850000  0.82200000  0.25990000  1.0
  C  C516  1  0.93430000  0.83690000  0.21740000  1.0
  C  C517  1  0.96990000  0.80480000  0.20020000  1.0
  C  C518  1  0.93630000  0.88150000  0.19080000  1.0
  C  C519  1  0.97020000  0.89920000  0.13970000  1.0
  C  C520  1  0.97210000  0.94190000  0.11950000  1.0
  C  C521  1  0.93940000  0.97110000  0.14650000  1.0
  C  C522  1  0.90540000  0.95570000  0.19430000  1.0
  C  C523  1  0.90220000  0.91080000  0.21600000  1.0
  C  C524  1  0.82990000  0.95600000  0.56790000  1.0
  C  C525  1  0.86040000  0.91990000  0.54480000  1.0
  C  C526  1  0.85230000  0.87890000  0.57590000  1.0
  C  C527  1  0.88010000  0.84410000  0.55350000  1.0
  C  C528  1  0.91450000  0.84960000  0.50060000  1.0
  C  C529  1  0.93800000  0.80890000  0.47410000  1.0
  C  C530  1  0.92470000  0.89230000  0.46710000  1.0
  C  C531  1  0.95940000  0.90160000  0.41420000  1.0
  C  C532  1  0.96620000  0.94260000  0.38810000  1.0
  C  C533  1  0.93940000  0.97780000  0.40830000  1.0
  C  C534  1  0.90510000  0.96950000  0.45910000  1.0
  C  C535  1  0.89620000  0.92720000  0.49000000  1.0
  C  C536  1  0.18210000  0.89630000  0.56850000  1.0
  C  C537  1  0.15140000  0.86050000  0.54350000  1.0
  C  C538  1  0.11570000  0.87340000  0.49890000  1.0
  C  C539  1  0.08370000  0.84430000  0.47300000  1.0
  C  C540  1  0.08680000  0.80090000  0.49270000  1.0
  C  C541  1  0.05210000  0.77160000  0.45910000  1.0
  C  C542  1  0.12150000  0.78600000  0.54260000  1.0
  C  C543  1  0.12450000  0.74180000  0.56250000  1.0
  C  C544  1  0.15920000  0.72820000  0.60990000  1.0
  C  C545  1  0.19110000  0.75660000  0.63960000  1.0
  C  C546  1  0.18920000  0.80020000  0.61500000  1.0
  C  C547  1  0.15520000  0.81600000  0.56510000  1.0
  C  C548  1  0.17040000  0.07980000  0.29470000  1.0
  C  C549  1  0.13360000  0.10600000  0.26350000  1.0
  C  C550  1  0.13480000  0.14980000  0.28420000  1.0
  C  C551  1  0.10150000  0.17800000  0.25990000  1.0
  C  C552  1  0.06570000  0.16310000  0.21740000  1.0
  C  C553  1  0.03010000  0.19520000  0.20020000  1.0
  C  C554  1  0.06370000  0.11850000  0.19080000  1.0
  C  C555  1  0.02980000  0.10080000  0.13970000  1.0
  C  C556  1  0.02790000  0.05810000  0.11950000  1.0
  C  C557  1  0.06060000  0.02890000  0.14650000  1.0
  C  C558  1  0.09460000  0.04430000  0.19430000  1.0
  C  C559  1  0.09780000  0.08920000  0.21600000  1.0
  C  C560  1  0.17010000  0.04400000  0.56790000  1.0
  C  C561  1  0.13960000  0.08010000  0.54480000  1.0
  C  C562  1  0.14770000  0.12110000  0.57590000  1.0
  C  C563  1  0.11990000  0.15590000  0.55350000  1.0
  C  C564  1  0.08550000  0.15040000  0.50060000  1.0
  C  C565  1  0.06200000  0.19110000  0.47410000  1.0
  C  C566  1  0.07530000  0.10770000  0.46710000  1.0
  C  C567  1  0.04060000  0.09840000  0.41420000  1.0
  C  C568  1  0.03380000  0.05740000  0.38810000  1.0
  C  C569  1  0.06060000  0.02220000  0.40830000  1.0
  C  C570  1  0.09490000  0.03050000  0.45910000  1.0
  C  C571  1  0.10380000  0.07280000  0.49000000  1.0
  C  C572  1  0.68210000  0.39630000  0.06850000  1.0
  C  C573  1  0.65140000  0.36050000  0.04350000  1.0
  C  C574  1  0.61570000  0.37340000  0.99890000  1.0
  C  C575  1  0.58370000  0.34430000  0.97300000  1.0
  C  C576  1  0.58680000  0.30090000  0.99270000  1.0
  C  C577  1  0.55210000  0.27160000  0.95910000  1.0
  C  C578  1  0.62150000  0.28600000  0.04260000  1.0
  C  C579  1  0.62450000  0.24180000  0.06250000  1.0
  C  C580  1  0.65920000  0.22820000  0.10990000  1.0
  C  C581  1  0.69110000  0.25660000  0.13960000  1.0
  C  C582  1  0.68920000  0.30020000  0.11500000  1.0
  C  C583  1  0.65520000  0.31600000  0.06510000  1.0
  C  C584  1  0.67040000  0.57980000  0.79470000  1.0
  C  C585  1  0.63360000  0.60600000  0.76350000  1.0
  C  C586  1  0.63480000  0.64980000  0.78420000  1.0
  C  C587  1  0.60150000  0.67800000  0.75990000  1.0
  C  C588  1  0.56570000  0.66310000  0.71740000  1.0
  C  C589  1  0.53010000  0.69520000  0.70020000  1.0
  C  C590  1  0.56370000  0.61850000  0.69080000  1.0
  C  C591  1  0.52980000  0.60080000  0.63970000  1.0
  C  C592  1  0.52790000  0.55810000  0.61950000  1.0
  C  C593  1  0.56060000  0.52890000  0.64650000  1.0
  C  C594  1  0.59460000  0.54430000  0.69430000  1.0
  C  C595  1  0.59780000  0.58920000  0.71600000  1.0
  C  C596  1  0.67010000  0.54400000  0.06790000  1.0
  C  C597  1  0.63960000  0.58010000  0.04480000  1.0
  C  C598  1  0.64770000  0.62110000  0.07590000  1.0
  C  C599  1  0.61990000  0.65590000  0.05350000  1.0
  C  C600  1  0.58550000  0.65040000  0.00060000  1.0
  C  C601  1  0.56200000  0.69110000  0.97410000  1.0
  C  C602  1  0.57530000  0.60770000  0.96710000  1.0
  C  C603  1  0.54060000  0.59840000  0.91420000  1.0
  C  C604  1  0.53380000  0.55740000  0.88810000  1.0
  C  C605  1  0.56060000  0.52220000  0.90830000  1.0
  C  C606  1  0.59490000  0.53050000  0.95910000  1.0
  C  C607  1  0.60380000  0.57280000  0.99000000  1.0
  C  C608  1  0.10370000  0.31790000  0.31850000  1.0
  C  C609  1  0.13950000  0.34860000  0.29350000  1.0
  C  C610  1  0.12660000  0.38430000  0.24890000  1.0
  C  C611  1  0.15570000  0.41630000  0.22300000  1.0
  C  C612  1  0.19910000  0.41320000  0.24270000  1.0
  C  C613  1  0.22840000  0.44790000  0.20910000  1.0
  C  C614  1  0.21400000  0.37850000  0.29260000  1.0
  C  C615  1  0.25820000  0.37550000  0.31250000  1.0
  C  C616  1  0.27180000  0.34080000  0.35990000  1.0
  C  C617  1  0.24340000  0.30890000  0.38960000  1.0
  C  C618  1  0.19980000  0.31080000  0.36500000  1.0
  C  C619  1  0.18400000  0.34480000  0.31510000  1.0
  C  C620  1  0.92020000  0.32960000  0.04470000  1.0
  C  C621  1  0.89400000  0.36640000  0.01350000  1.0
  C  C622  1  0.85020000  0.36520000  0.03420000  1.0
  C  C623  1  0.82200000  0.39850000  0.00990000  1.0
  C  C624  1  0.83690000  0.43430000  0.96740000  1.0
  C  C625  1  0.80480000  0.46990000  0.95020000  1.0
  C  C626  1  0.88150000  0.43630000  0.94080000  1.0
  C  C627  1  0.89920000  0.47020000  0.88970000  1.0
  C  C628  1  0.94190000  0.47210000  0.86950000  1.0
  C  C629  1  0.97110000  0.43940000  0.89650000  1.0
  C  C630  1  0.95570000  0.40540000  0.94430000  1.0
  C  C631  1  0.91080000  0.40220000  0.96600000  1.0
  C  C632  1  0.95600000  0.32990000  0.31790000  1.0
  C  C633  1  0.91990000  0.36040000  0.29480000  1.0
  C  C634  1  0.87890000  0.35230000  0.32590000  1.0
  C  C635  1  0.84410000  0.38010000  0.30350000  1.0
  C  C636  1  0.84960000  0.41450000  0.25060000  1.0
  C  C637  1  0.80890000  0.43800000  0.22410000  1.0
  C  C638  1  0.89230000  0.42470000  0.21710000  1.0
  C  C639  1  0.90160000  0.45940000  0.16420000  1.0
  C  C640  1  0.94260000  0.46620000  0.13810000  1.0
  C  C641  1  0.97780000  0.43940000  0.15830000  1.0
  C  C642  1  0.96950000  0.40510000  0.20910000  1.0
  C  C643  1  0.92720000  0.39620000  0.24000000  1.0
  C  C644  1  0.60370000  0.81790000  0.81850000  1.0
  C  C645  1  0.63950000  0.84860000  0.79350000  1.0
  C  C646  1  0.62660000  0.88430000  0.74890000  1.0
  C  C647  1  0.65570000  0.91630000  0.72300000  1.0
  C  C648  1  0.69910000  0.91320000  0.74270000  1.0
  C  C649  1  0.72840000  0.94790000  0.70910000  1.0
  C  C650  1  0.71400000  0.87850000  0.79260000  1.0
  C  C651  1  0.75820000  0.87550000  0.81250000  1.0
  C  C652  1  0.77180000  0.84080000  0.85990000  1.0
  C  C653  1  0.74340000  0.80890000  0.88960000  1.0
  C  C654  1  0.69980000  0.81080000  0.86500000  1.0
  C  C655  1  0.68400000  0.84480000  0.81510000  1.0
  C  C656  1  0.42020000  0.82960000  0.54470000  1.0
  C  C657  1  0.39400000  0.86640000  0.51350000  1.0
  C  C658  1  0.35020000  0.86520000  0.53420000  1.0
  C  C659  1  0.32200000  0.89850000  0.50990000  1.0
  C  C660  1  0.33690000  0.93430000  0.46740000  1.0
  C  C661  1  0.30480000  0.96990000  0.45020000  1.0
  C  C662  1  0.38150000  0.93630000  0.44080000  1.0
  C  C663  1  0.39920000  0.97020000  0.38970000  1.0
  C  C664  1  0.44190000  0.97210000  0.36950000  1.0
  C  C665  1  0.47110000  0.93940000  0.39650000  1.0
  C  C666  1  0.45570000  0.90540000  0.44430000  1.0
  C  C667  1  0.41080000  0.90220000  0.46600000  1.0
  C  C668  1  0.45600000  0.82990000  0.81790000  1.0
  C  C669  1  0.41990000  0.86040000  0.79480000  1.0
  C  C670  1  0.37890000  0.85230000  0.82590000  1.0
  C  C671  1  0.34410000  0.88010000  0.80350000  1.0
  C  C672  1  0.34960000  0.91450000  0.75060000  1.0
  C  C673  1  0.30890000  0.93800000  0.72410000  1.0
  C  C674  1  0.39230000  0.92470000  0.71710000  1.0
  C  C675  1  0.40160000  0.95940000  0.66420000  1.0
  C  C676  1  0.44260000  0.96620000  0.63810000  1.0
  C  C677  1  0.47780000  0.93940000  0.65830000  1.0
  C  C678  1  0.46950000  0.90510000  0.70910000  1.0
  C  C679  1  0.42720000  0.89620000  0.74000000  1.0
  C  C680  1  0.39630000  0.18210000  0.81850000  1.0
  C  C681  1  0.36050000  0.15140000  0.79350000  1.0
  C  C682  1  0.37340000  0.11570000  0.74890000  1.0
  C  C683  1  0.34430000  0.08370000  0.72300000  1.0
  C  C684  1  0.30090000  0.08680000  0.74270000  1.0
  C  C685  1  0.27160000  0.05210000  0.70910000  1.0
  C  C686  1  0.28600000  0.12150000  0.79260000  1.0
  C  C687  1  0.24180000  0.12450000  0.81250000  1.0
  C  C688  1  0.22820000  0.15920000  0.85990000  1.0
  C  C689  1  0.25660000  0.19110000  0.88960000  1.0
  C  C690  1  0.30020000  0.18920000  0.86500000  1.0
  C  C691  1  0.31600000  0.15520000  0.81510000  1.0
  C  C692  1  0.57980000  0.17040000  0.54470000  1.0
  C  C693  1  0.60600000  0.13360000  0.51350000  1.0
  C  C694  1  0.64980000  0.13480000  0.53420000  1.0
  C  C695  1  0.67800000  0.10150000  0.50990000  1.0
  C  C696  1  0.66310000  0.06570000  0.46740000  1.0
  C  C697  1  0.69520000  0.03010000  0.45020000  1.0
  C  C698  1  0.61850000  0.06370000  0.44080000  1.0
  C  C699  1  0.60080000  0.02980000  0.38970000  1.0
  C  C700  1  0.55810000  0.02790000  0.36950000  1.0
  C  C701  1  0.52890000  0.06060000  0.39650000  1.0
  C  C702  1  0.54430000  0.09460000  0.44430000  1.0
  C  C703  1  0.58920000  0.09780000  0.46600000  1.0
  C  C704  1  0.54400000  0.17010000  0.81790000  1.0
  C  C705  1  0.58010000  0.13960000  0.79480000  1.0
  C  C706  1  0.62110000  0.14770000  0.82590000  1.0
  C  C707  1  0.65590000  0.11990000  0.80350000  1.0
  C  C708  1  0.65040000  0.08550000  0.75060000  1.0
  C  C709  1  0.69110000  0.06200000  0.72410000  1.0
  C  C710  1  0.60770000  0.07530000  0.71710000  1.0
  C  C711  1  0.59840000  0.04060000  0.66420000  1.0
  C  C712  1  0.55740000  0.03380000  0.63810000  1.0
  C  C713  1  0.52220000  0.06060000  0.65830000  1.0
  C  C714  1  0.53050000  0.09490000  0.70910000  1.0
  C  C715  1  0.57280000  0.10380000  0.74000000  1.0
  C  C716  1  0.89630000  0.68210000  0.31850000  1.0
  C  C717  1  0.86050000  0.65140000  0.29350000  1.0
  C  C718  1  0.87340000  0.61570000  0.24890000  1.0
  C  C719  1  0.84430000  0.58370000  0.22300000  1.0
  C  C720  1  0.80090000  0.58680000  0.24270000  1.0
  C  C721  1  0.77160000  0.55210000  0.20910000  1.0
  C  C722  1  0.78600000  0.62150000  0.29260000  1.0
  C  C723  1  0.74180000  0.62450000  0.31250000  1.0
  C  C724  1  0.72820000  0.65920000  0.35990000  1.0
  C  C725  1  0.75660000  0.69110000  0.38960000  1.0
  C  C726  1  0.80020000  0.68920000  0.36500000  1.0
  C  C727  1  0.81600000  0.65520000  0.31510000  1.0
  C  C728  1  0.07980000  0.67040000  0.04470000  1.0
  C  C729  1  0.10600000  0.63360000  0.01350000  1.0
  C  C730  1  0.14980000  0.63480000  0.03420000  1.0
  C  C731  1  0.17800000  0.60150000  0.00990000  1.0
  C  C732  1  0.16310000  0.56570000  0.96740000  1.0
  C  C733  1  0.19520000  0.53010000  0.95020000  1.0
  C  C734  1  0.11850000  0.56370000  0.94080000  1.0
  C  C735  1  0.10080000  0.52980000  0.88970000  1.0
  C  C736  1  0.05810000  0.52790000  0.86950000  1.0
  C  C737  1  0.02890000  0.56060000  0.89650000  1.0
  C  C738  1  0.04430000  0.59460000  0.94430000  1.0
  C  C739  1  0.08920000  0.59780000  0.96600000  1.0
  C  C740  1  0.04400000  0.67010000  0.31790000  1.0
  C  C741  1  0.08010000  0.63960000  0.29480000  1.0
  C  C742  1  0.12110000  0.64770000  0.32590000  1.0
  C  C743  1  0.15590000  0.61990000  0.30350000  1.0
  C  C744  1  0.15040000  0.58550000  0.25060000  1.0
  C  C745  1  0.19110000  0.56200000  0.22410000  1.0
  C  C746  1  0.10770000  0.57530000  0.21710000  1.0
  C  C747  1  0.09840000  0.54060000  0.16420000  1.0
  C  C748  1  0.05740000  0.53380000  0.13810000  1.0
  C  C749  1  0.02220000  0.56060000  0.15830000  1.0
  C  C750  1  0.03050000  0.59490000  0.20910000  1.0
  C  C751  1  0.07280000  0.60380000  0.24000000  1.0
  C  C752  1  0.31790000  0.39630000  0.56850000  1.0
  C  C753  1  0.34860000  0.36050000  0.54350000  1.0
  C  C754  1  0.38430000  0.37340000  0.49890000  1.0
  C  C755  1  0.41630000  0.34430000  0.47300000  1.0
  C  C756  1  0.41320000  0.30090000  0.49270000  1.0
  C  C757  1  0.44790000  0.27160000  0.45910000  1.0
  C  C758  1  0.37850000  0.28600000  0.54260000  1.0
  C  C759  1  0.37550000  0.24180000  0.56250000  1.0
  C  C760  1  0.34080000  0.22820000  0.60990000  1.0
  C  C761  1  0.30890000  0.25660000  0.63960000  1.0
  C  C762  1  0.31080000  0.30020000  0.61500000  1.0
  C  C763  1  0.34480000  0.31600000  0.56510000  1.0
  C  C764  1  0.32960000  0.57980000  0.29470000  1.0
  C  C765  1  0.36640000  0.60600000  0.26350000  1.0
  C  C766  1  0.36520000  0.64980000  0.28420000  1.0
  C  C767  1  0.39850000  0.67800000  0.25990000  1.0
  C  C768  1  0.43430000  0.66310000  0.21740000  1.0
  C  C769  1  0.46990000  0.69520000  0.20020000  1.0
  C  C770  1  0.43630000  0.61850000  0.19080000  1.0
  C  C771  1  0.47020000  0.60080000  0.13970000  1.0
  C  C772  1  0.47210000  0.55810000  0.11950000  1.0
  C  C773  1  0.43940000  0.52890000  0.14650000  1.0
  C  C774  1  0.40540000  0.54430000  0.19430000  1.0
  C  C775  1  0.40220000  0.58920000  0.21600000  1.0
  C  C776  1  0.32990000  0.54400000  0.56790000  1.0
  C  C777  1  0.36040000  0.58010000  0.54480000  1.0
  C  C778  1  0.35230000  0.62110000  0.57590000  1.0
  C  C779  1  0.38010000  0.65590000  0.55350000  1.0
  C  C780  1  0.41450000  0.65040000  0.50060000  1.0
  C  C781  1  0.43800000  0.69110000  0.47410000  1.0
  C  C782  1  0.42470000  0.60770000  0.46710000  1.0
  C  C783  1  0.45940000  0.59840000  0.41420000  1.0
  C  C784  1  0.46620000  0.55740000  0.38810000  1.0
  C  C785  1  0.43940000  0.52220000  0.40830000  1.0
  C  C786  1  0.40510000  0.53050000  0.45910000  1.0
  C  C787  1  0.39620000  0.57280000  0.49000000  1.0
  C  C788  1  0.81790000  0.89630000  0.06850000  1.0
  C  C789  1  0.84860000  0.86050000  0.04350000  1.0
  C  C790  1  0.88430000  0.87340000  0.99890000  1.0
  C  C791  1  0.91630000  0.84430000  0.97300000  1.0
  C  C792  1  0.91320000  0.80090000  0.99270000  1.0
  C  C793  1  0.94790000  0.77160000  0.95910000  1.0
  C  C794  1  0.87850000  0.78600000  0.04260000  1.0
  C  C795  1  0.87550000  0.74180000  0.06250000  1.0
  C  C796  1  0.84080000  0.72820000  0.10990000  1.0
  C  C797  1  0.80890000  0.75660000  0.13960000  1.0
  C  C798  1  0.81080000  0.80020000  0.11500000  1.0
  C  C799  1  0.84480000  0.81600000  0.06510000  1.0
  C  C800  1  0.82960000  0.07980000  0.79470000  1.0
  C  C801  1  0.86640000  0.10600000  0.76350000  1.0
  C  C802  1  0.86520000  0.14980000  0.78420000  1.0
  C  C803  1  0.89850000  0.17800000  0.75990000  1.0
  C  C804  1  0.93430000  0.16310000  0.71740000  1.0
  C  C805  1  0.96990000  0.19520000  0.70020000  1.0
  C  C806  1  0.93630000  0.11850000  0.69080000  1.0
  C  C807  1  0.97020000  0.10080000  0.63970000  1.0
  C  C808  1  0.97210000  0.05810000  0.61950000  1.0
  C  C809  1  0.93940000  0.02890000  0.64650000  1.0
  C  C810  1  0.90540000  0.04430000  0.69430000  1.0
  C  C811  1  0.90220000  0.08920000  0.71600000  1.0
  C  C812  1  0.82990000  0.04400000  0.06790000  1.0
  C  C813  1  0.86040000  0.08010000  0.04480000  1.0
  C  C814  1  0.85230000  0.12110000  0.07590000  1.0
  C  C815  1  0.88010000  0.15590000  0.05350000  1.0
  C  C816  1  0.91450000  0.15040000  0.00060000  1.0
  C  C817  1  0.93800000  0.19110000  0.97410000  1.0
  C  C818  1  0.92470000  0.10770000  0.96710000  1.0
  C  C819  1  0.95940000  0.09840000  0.91420000  1.0
  C  C820  1  0.96620000  0.05740000  0.88810000  1.0
  C  C821  1  0.93940000  0.02220000  0.90830000  1.0
  C  C822  1  0.90510000  0.03050000  0.95910000  1.0
  C  C823  1  0.89620000  0.07280000  0.99000000  1.0
  C  C824  1  0.18210000  0.10370000  0.06850000  1.0
  C  C825  1  0.15140000  0.13950000  0.04350000  1.0
  C  C826  1  0.11570000  0.12660000  0.99890000  1.0
  C  C827  1  0.08370000  0.15570000  0.97300000  1.0
  C  C828  1  0.08680000  0.19910000  0.99270000  1.0
  C  C829  1  0.05210000  0.22840000  0.95910000  1.0
  C  C830  1  0.12150000  0.21400000  0.04260000  1.0
  C  C831  1  0.12450000  0.25820000  0.06250000  1.0
  C  C832  1  0.15920000  0.27180000  0.10990000  1.0
  C  C833  1  0.19110000  0.24340000  0.13960000  1.0
  C  C834  1  0.18920000  0.19980000  0.11500000  1.0
  C  C835  1  0.15520000  0.18400000  0.06510000  1.0
  C  C836  1  0.17040000  0.92020000  0.79470000  1.0
  C  C837  1  0.13360000  0.89400000  0.76350000  1.0
  C  C838  1  0.13480000  0.85020000  0.78420000  1.0
  C  C839  1  0.10150000  0.82200000  0.75990000  1.0
  C  C840  1  0.06570000  0.83690000  0.71740000  1.0
  C  C841  1  0.03010000  0.80480000  0.70020000  1.0
  C  C842  1  0.06370000  0.88150000  0.69080000  1.0
  C  C843  1  0.02980000  0.89920000  0.63970000  1.0
  C  C844  1  0.02790000  0.94190000  0.61950000  1.0
  C  C845  1  0.06060000  0.97110000  0.64650000  1.0
  C  C846  1  0.09460000  0.95570000  0.69430000  1.0
  C  C847  1  0.09780000  0.91080000  0.71600000  1.0
  C  C848  1  0.17010000  0.95600000  0.06790000  1.0
  C  C849  1  0.13960000  0.91990000  0.04480000  1.0
  C  C850  1  0.14770000  0.87890000  0.07590000  1.0
  C  C851  1  0.11990000  0.84410000  0.05350000  1.0
  C  C852  1  0.08550000  0.84960000  0.00060000  1.0
  C  C853  1  0.06200000  0.80890000  0.97410000  1.0
  C  C854  1  0.07530000  0.89230000  0.96710000  1.0
  C  C855  1  0.04060000  0.90160000  0.91420000  1.0
  C  C856  1  0.03380000  0.94260000  0.88810000  1.0
  C  C857  1  0.06060000  0.97780000  0.90830000  1.0
  C  C858  1  0.09490000  0.96950000  0.95910000  1.0
  C  C859  1  0.10380000  0.92720000  0.99000000  1.0
  C  C860  1  0.68210000  0.60370000  0.56850000  1.0
  C  C861  1  0.65140000  0.63950000  0.54350000  1.0
  C  C862  1  0.61570000  0.62660000  0.49890000  1.0
  C  C863  1  0.58370000  0.65570000  0.47300000  1.0
  C  C864  1  0.58680000  0.69910000  0.49270000  1.0
  C  C865  1  0.55210000  0.72840000  0.45910000  1.0
  C  C866  1  0.62150000  0.71400000  0.54260000  1.0
  C  C867  1  0.62450000  0.75820000  0.56250000  1.0
  C  C868  1  0.65920000  0.77180000  0.60990000  1.0
  C  C869  1  0.69110000  0.74340000  0.63960000  1.0
  C  C870  1  0.68920000  0.69980000  0.61500000  1.0
  C  C871  1  0.65520000  0.68400000  0.56510000  1.0
  C  C872  1  0.67040000  0.42020000  0.29470000  1.0
  C  C873  1  0.63360000  0.39400000  0.26350000  1.0
  C  C874  1  0.63480000  0.35020000  0.28420000  1.0
  C  C875  1  0.60150000  0.32200000  0.25990000  1.0
  C  C876  1  0.56570000  0.33690000  0.21740000  1.0
  C  C877  1  0.53010000  0.30480000  0.20020000  1.0
  C  C878  1  0.56370000  0.38150000  0.19080000  1.0
  C  C879  1  0.52980000  0.39920000  0.13970000  1.0
  C  C880  1  0.52790000  0.44190000  0.11950000  1.0
  C  C881  1  0.56060000  0.47110000  0.14650000  1.0
  C  C882  1  0.59460000  0.45570000  0.19430000  1.0
  C  C883  1  0.59780000  0.41080000  0.21600000  1.0
  C  C884  1  0.67010000  0.45600000  0.56790000  1.0
  C  C885  1  0.63960000  0.41990000  0.54480000  1.0
  C  C886  1  0.64770000  0.37890000  0.57590000  1.0
  C  C887  1  0.61990000  0.34410000  0.55350000  1.0
  C  C888  1  0.58550000  0.34960000  0.50060000  1.0
  C  C889  1  0.56200000  0.30890000  0.47410000  1.0
  C  C890  1  0.57530000  0.39230000  0.46710000  1.0
  C  C891  1  0.54060000  0.40160000  0.41420000  1.0
  C  C892  1  0.53380000  0.44260000  0.38810000  1.0
  C  C893  1  0.56060000  0.47780000  0.40830000  1.0
  C  C894  1  0.59490000  0.46950000  0.45910000  1.0
  C  C895  1  0.60380000  0.42720000  0.49000000  1.0
  O  O896  1  0.06545000  0.67425000  0.79240000  1.0
  O  O897  1  0.11028000  0.71501000  0.86420000  1.0
  O  O898  1  0.24959000  0.52734000  0.75720000  1.0
  O  O899  1  0.23097000  0.54730000  0.63040000  1.0
  O  O900  1  0.95401000  0.68380000  0.50430000  1.0
  O  O901  1  0.90926000  0.68908000  0.60950000  1.0
  O  O902  1  0.76866000  0.53022000  0.48850000  1.0
  O  O903  1  0.81205000  0.50217000  0.39540000  1.0
  O  O904  1  0.97253000  0.69511000  0.76600000  1.0
  O  O905  1  0.96812000  0.67008000  0.89260000  1.0
  O  O906  1  0.80939000  0.54050000  0.65800000  1.0
  O  O907  1  0.77533000  0.56470000  0.76690000  1.0
  O  O908  1  0.56545000  0.17425000  0.29240000  1.0
  O  O909  1  0.61028000  0.21501000  0.36420000  1.0
  O  O910  1  0.74959000  0.02734000  0.25720000  1.0
  O  O911  1  0.73097000  0.04730000  0.13040000  1.0
  O  O912  1  0.45401000  0.18380000  0.00430000  1.0
  O  O913  1  0.40926000  0.18908000  0.10950000  1.0
  O  O914  1  0.26866000  0.03022000  0.98850000  1.0
  O  O915  1  0.31205000  0.00217000  0.89540000  1.0
  O  O916  1  0.47253000  0.19511000  0.26600000  1.0
  O  O917  1  0.46812000  0.17008000  0.39260000  1.0
  O  O918  1  0.30939000  0.04050000  0.15800000  1.0
  O  O919  1  0.27533000  0.06470000  0.26690000  1.0
  O  O920  1  0.43455000  0.82575000  0.29240000  1.0
  O  O921  1  0.38972000  0.78499000  0.36420000  1.0
  O  O922  1  0.25041000  0.97266000  0.25720000  1.0
  O  O923  1  0.26903000  0.95270000  0.13040000  1.0
  O  O924  1  0.54599000  0.81620000  0.00430000  1.0
  O  O925  1  0.59074000  0.81092000  0.10950000  1.0
  O  O926  1  0.73134000  0.96978000  0.98850000  1.0
  O  O927  1  0.68795000  0.99783000  0.89540000  1.0
  O  O928  1  0.52747000  0.80489000  0.26600000  1.0
  O  O929  1  0.53188000  0.82992000  0.39260000  1.0
  O  O930  1  0.69061000  0.95950000  0.15800000  1.0
  O  O931  1  0.72467000  0.93530000  0.26690000  1.0
  O  O932  1  0.93455000  0.32575000  0.79240000  1.0
  O  O933  1  0.88972000  0.28499000  0.86420000  1.0
  O  O934  1  0.75041000  0.47266000  0.75720000  1.0
  O  O935  1  0.76903000  0.45270000  0.63040000  1.0
  O  O936  1  0.04599000  0.31620000  0.50430000  1.0
  O  O937  1  0.09074000  0.31092000  0.60950000  1.0
  O  O938  1  0.23134000  0.46978000  0.48850000  1.0
  O  O939  1  0.18795000  0.49783000  0.39540000  1.0
  O  O940  1  0.02747000  0.30489000  0.76600000  1.0
  O  O941  1  0.03188000  0.32992000  0.89260000  1.0
  O  O942  1  0.19061000  0.45950000  0.65800000  1.0
  O  O943  1  0.22467000  0.43530000  0.76690000  1.0
  O  O944  1  0.32575000  0.56545000  0.04240000  1.0
  O  O945  1  0.28499000  0.61028000  0.11420000  1.0
  O  O946  1  0.47266000  0.74959000  0.00720000  1.0
  O  O947  1  0.45270000  0.73097000  0.88040000  1.0
  O  O948  1  0.31620000  0.45401000  0.75430000  1.0
  O  O949  1  0.31092000  0.40926000  0.85950000  1.0
  O  O950  1  0.46978000  0.26866000  0.73850000  1.0
  O  O951  1  0.49783000  0.31205000  0.64540000  1.0
  O  O952  1  0.30489000  0.47253000  0.01600000  1.0
  O  O953  1  0.32992000  0.46812000  0.14260000  1.0
  O  O954  1  0.45950000  0.30939000  0.90800000  1.0
  O  O955  1  0.43530000  0.27533000  0.01690000  1.0
  O  O956  1  0.82575000  0.06545000  0.54240000  1.0
  O  O957  1  0.78499000  0.11028000  0.61420000  1.0
  O  O958  1  0.97266000  0.24959000  0.50720000  1.0
  O  O959  1  0.95270000  0.23097000  0.38040000  1.0
  O  O960  1  0.81620000  0.95401000  0.25430000  1.0
  O  O961  1  0.81092000  0.90926000  0.35950000  1.0
  O  O962  1  0.96978000  0.76866000  0.23850000  1.0
  O  O963  1  0.99783000  0.81205000  0.14540000  1.0
  O  O964  1  0.80489000  0.97253000  0.51600000  1.0
  O  O965  1  0.82992000  0.96812000  0.64260000  1.0
  O  O966  1  0.95950000  0.80939000  0.40800000  1.0
  O  O967  1  0.93530000  0.77533000  0.51690000  1.0
  O  O968  1  0.17425000  0.93455000  0.54240000  1.0
  O  O969  1  0.21501000  0.88972000  0.61420000  1.0
  O  O970  1  0.02734000  0.75041000  0.50720000  1.0
  O  O971  1  0.04730000  0.76903000  0.38040000  1.0
  O  O972  1  0.18380000  0.04599000  0.25430000  1.0
  O  O973  1  0.18908000  0.09074000  0.35950000  1.0
  O  O974  1  0.03022000  0.23134000  0.23850000  1.0
  O  O975  1  0.00217000  0.18795000  0.14540000  1.0
  O  O976  1  0.19511000  0.02747000  0.51600000  1.0
  O  O977  1  0.17008000  0.03188000  0.64260000  1.0
  O  O978  1  0.04050000  0.19061000  0.40800000  1.0
  O  O979  1  0.06470000  0.22467000  0.51690000  1.0
  O  O980  1  0.67425000  0.43455000  0.04240000  1.0
  O  O981  1  0.71501000  0.38972000  0.11420000  1.0
  O  O982  1  0.52734000  0.25041000  0.00720000  1.0
  O  O983  1  0.54730000  0.26903000  0.88040000  1.0
  O  O984  1  0.68380000  0.54599000  0.75430000  1.0
  O  O985  1  0.68908000  0.59074000  0.85950000  1.0
  O  O986  1  0.53022000  0.73134000  0.73850000  1.0
  O  O987  1  0.50217000  0.68795000  0.64540000  1.0
  O  O988  1  0.69511000  0.52747000  0.01600000  1.0
  O  O989  1  0.67008000  0.53188000  0.14260000  1.0
  O  O990  1  0.54050000  0.69061000  0.90800000  1.0
  O  O991  1  0.56470000  0.72467000  0.01690000  1.0
  O  O992  1  0.06545000  0.32575000  0.29240000  1.0
  O  O993  1  0.11028000  0.28499000  0.36420000  1.0
  O  O994  1  0.24959000  0.47266000  0.25720000  1.0
  O  O995  1  0.23097000  0.45270000  0.13040000  1.0
  O  O996  1  0.95401000  0.31620000  0.00430000  1.0
  O  O997  1  0.90926000  0.31092000  0.10950000  1.0
  O  O998  1  0.76866000  0.46978000  0.98850000  1.0
  O  O999  1  0.81205000  0.49783000  0.89540000  1.0
  O  O1000  1  0.97253000  0.30489000  0.26600000  1.0
  O  O1001  1  0.96812000  0.32992000  0.39260000  1.0
  O  O1002  1  0.80939000  0.45950000  0.15800000  1.0
  O  O1003  1  0.77533000  0.43530000  0.26690000  1.0
  O  O1004  1  0.56545000  0.82575000  0.79240000  1.0
  O  O1005  1  0.61028000  0.78499000  0.86420000  1.0
  O  O1006  1  0.74959000  0.97266000  0.75720000  1.0
  O  O1007  1  0.73097000  0.95270000  0.63040000  1.0
  O  O1008  1  0.45401000  0.81620000  0.50430000  1.0
  O  O1009  1  0.40926000  0.81092000  0.60950000  1.0
  O  O1010  1  0.26866000  0.96978000  0.48850000  1.0
  O  O1011  1  0.31205000  0.99783000  0.39540000  1.0
  O  O1012  1  0.47253000  0.80489000  0.76600000  1.0
  O  O1013  1  0.46812000  0.82992000  0.89260000  1.0
  O  O1014  1  0.30939000  0.95950000  0.65800000  1.0
  O  O1015  1  0.27533000  0.93530000  0.76690000  1.0
  O  O1016  1  0.43455000  0.17425000  0.79240000  1.0
  O  O1017  1  0.38972000  0.21501000  0.86420000  1.0
  O  O1018  1  0.25041000  0.02734000  0.75720000  1.0
  O  O1019  1  0.26903000  0.04730000  0.63040000  1.0
  O  O1020  1  0.54599000  0.18380000  0.50430000  1.0
  O  O1021  1  0.59074000  0.18908000  0.60950000  1.0
  O  O1022  1  0.73134000  0.03022000  0.48850000  1.0
  O  O1023  1  0.68795000  0.00217000  0.39540000  1.0
  O  O1024  1  0.52747000  0.19511000  0.76600000  1.0
  O  O1025  1  0.53188000  0.17008000  0.89260000  1.0
  O  O1026  1  0.69061000  0.04050000  0.65800000  1.0
  O  O1027  1  0.72467000  0.06470000  0.76690000  1.0
  O  O1028  1  0.93455000  0.67425000  0.29240000  1.0
  O  O1029  1  0.88972000  0.71501000  0.36420000  1.0
  O  O1030  1  0.75041000  0.52734000  0.25720000  1.0
  O  O1031  1  0.76903000  0.54730000  0.13040000  1.0
  O  O1032  1  0.04599000  0.68380000  0.00430000  1.0
  O  O1033  1  0.09074000  0.68908000  0.10950000  1.0
  O  O1034  1  0.23134000  0.53022000  0.98850000  1.0
  O  O1035  1  0.18795000  0.50217000  0.89540000  1.0
  O  O1036  1  0.02747000  0.69511000  0.26600000  1.0
  O  O1037  1  0.03188000  0.67008000  0.39260000  1.0
  O  O1038  1  0.19061000  0.54050000  0.15800000  1.0
  O  O1039  1  0.22467000  0.56470000  0.26690000  1.0
  O  O1040  1  0.32575000  0.43455000  0.54240000  1.0
  O  O1041  1  0.28499000  0.38972000  0.61420000  1.0
  O  O1042  1  0.47266000  0.25041000  0.50720000  1.0
  O  O1043  1  0.45270000  0.26903000  0.38040000  1.0
  O  O1044  1  0.31620000  0.54599000  0.25430000  1.0
  O  O1045  1  0.31092000  0.59074000  0.35950000  1.0
  O  O1046  1  0.46978000  0.73134000  0.23850000  1.0
  O  O1047  1  0.49783000  0.68795000  0.14540000  1.0
  O  O1048  1  0.30489000  0.52747000  0.51600000  1.0
  O  O1049  1  0.32992000  0.53188000  0.64260000  1.0
  O  O1050  1  0.45950000  0.69061000  0.40800000  1.0
  O  O1051  1  0.43530000  0.72467000  0.51690000  1.0
  O  O1052  1  0.82575000  0.93455000  0.04240000  1.0
  O  O1053  1  0.78499000  0.88972000  0.11420000  1.0
  O  O1054  1  0.97266000  0.75041000  0.00720000  1.0
  O  O1055  1  0.95270000  0.76903000  0.88040000  1.0
  O  O1056  1  0.81620000  0.04599000  0.75430000  1.0
  O  O1057  1  0.81092000  0.09074000  0.85950000  1.0
  O  O1058  1  0.96978000  0.23134000  0.73850000  1.0
  O  O1059  1  0.99783000  0.18795000  0.64540000  1.0
  O  O1060  1  0.80489000  0.02747000  0.01600000  1.0
  O  O1061  1  0.82992000  0.03188000  0.14260000  1.0
  O  O1062  1  0.95950000  0.19061000  0.90800000  1.0
  O  O1063  1  0.93530000  0.22467000  0.01690000  1.0
  O  O1064  1  0.17425000  0.06545000  0.04240000  1.0
  O  O1065  1  0.21501000  0.11028000  0.11420000  1.0
  O  O1066  1  0.02734000  0.24959000  0.00720000  1.0
  O  O1067  1  0.04730000  0.23097000  0.88040000  1.0
  O  O1068  1  0.18380000  0.95401000  0.75430000  1.0
  O  O1069  1  0.18908000  0.90926000  0.85950000  1.0
  O  O1070  1  0.03022000  0.76866000  0.73850000  1.0
  O  O1071  1  0.00217000  0.81205000  0.64540000  1.0
  O  O1072  1  0.19511000  0.97253000  0.01600000  1.0
  O  O1073  1  0.17008000  0.96812000  0.14260000  1.0
  O  O1074  1  0.04050000  0.80939000  0.90800000  1.0
  O  O1075  1  0.06470000  0.77533000  0.01690000  1.0
  O  O1076  1  0.67425000  0.56545000  0.54240000  1.0
  O  O1077  1  0.71501000  0.61028000  0.61420000  1.0
  O  O1078  1  0.52734000  0.74959000  0.50720000  1.0
  O  O1079  1  0.54730000  0.73097000  0.38040000  1.0
  O  O1080  1  0.68380000  0.45401000  0.25430000  1.0
  O  O1081  1  0.68908000  0.40926000  0.35950000  1.0
  O  O1082  1  0.53022000  0.26866000  0.23850000  1.0
  O  O1083  1  0.50217000  0.31205000  0.14540000  1.0
  O  O1084  1  0.69511000  0.47253000  0.51600000  1.0
  O  O1085  1  0.67008000  0.46812000  0.64260000  1.0
  O  O1086  1  0.54050000  0.30939000  0.40800000  1.0
  O  O1087  1  0.56470000  0.27533000  0.51690000  1.0
