# generated using pymatgen
data_Ni12P2H60W21C18(N3O17)4
_symmetry_space_group_name_H-M   'P 1'
_cell_length_a   24.92390000
_cell_length_b   24.92390000
_cell_length_c   24.92390000
_cell_angle_alpha   90.00000000
_cell_angle_beta   90.00000000
_cell_angle_gamma   90.00000000
_symmetry_Int_Tables_number   1
_chemical_formula_structural   Ni12P2H60W21C18(N3O17)4
_chemical_formula_sum   'Ni48 P8 H240 W84 C72 N48 O272'
_cell_volume   15482.74640004
_cell_formula_units_Z   4
loop_
 _symmetry_equiv_pos_site_id
 _symmetry_equiv_pos_as_xyz
  1  'x, y, z'
loop_
 _atom_site_type_symbol
 _atom_site_label
 _atom_site_symmetry_multiplicity
 _atom_site_fract_x
 _atom_site_fract_y
 _atom_site_fract_z
 _atom_site_occupancy
  Ni  Ni0  1  0.08048000  0.08987000  0.17319000  1.0
  Ni  Ni1  1  0.16717000  0.00013000  0.18467000  1.0
  Ni  Ni2  1  0.12929000  0.07022000  0.43545000  1.0
  Ni  Ni3  1  0.02773000  0.00438000  0.40357000  1.0
  Ni  Ni4  1  0.41952000  0.91013000  0.67319000  1.0
  Ni  Ni5  1  0.33283000  0.99987000  0.68467000  1.0
  Ni  Ni6  1  0.37071000  0.92978000  0.93545000  1.0
  Ni  Ni7  1  0.47227000  0.99562000  0.90357000  1.0
  Ni  Ni8  1  0.91952000  0.58987000  0.32681000  1.0
  Ni  Ni9  1  0.83283000  0.50013000  0.31533000  1.0
  Ni  Ni10  1  0.87071000  0.57022000  0.06455000  1.0
  Ni  Ni11  1  0.97227000  0.50438000  0.09643000  1.0
  Ni  Ni12  1  0.58048000  0.41013000  0.82681000  1.0
  Ni  Ni13  1  0.66717000  0.49987000  0.81533000  1.0
  Ni  Ni14  1  0.62929000  0.42978000  0.56455000  1.0
  Ni  Ni15  1  0.52773000  0.49562000  0.59643000  1.0
  Ni  Ni16  1  0.17319000  0.08048000  0.08987000  1.0
  Ni  Ni17  1  0.18467000  0.16717000  0.00013000  1.0
  Ni  Ni18  1  0.43545000  0.12929000  0.07022000  1.0
  Ni  Ni19  1  0.40357000  0.02773000  0.00438000  1.0
  Ni  Ni20  1  0.67319000  0.41952000  0.91013000  1.0
  Ni  Ni21  1  0.68467000  0.33283000  0.99987000  1.0
  Ni  Ni22  1  0.93545000  0.37071000  0.92978000  1.0
  Ni  Ni23  1  0.90357000  0.47227000  0.99562000  1.0
  Ni  Ni24  1  0.32681000  0.91952000  0.58987000  1.0
  Ni  Ni25  1  0.31533000  0.83283000  0.50013000  1.0
  Ni  Ni26  1  0.06455000  0.87071000  0.57022000  1.0
  Ni  Ni27  1  0.09643000  0.97227000  0.50438000  1.0
  Ni  Ni28  1  0.82681000  0.58048000  0.41013000  1.0
  Ni  Ni29  1  0.81533000  0.66717000  0.49987000  1.0
  Ni  Ni30  1  0.56455000  0.62929000  0.42978000  1.0
  Ni  Ni31  1  0.59643000  0.52773000  0.49562000  1.0
  Ni  Ni32  1  0.08987000  0.17319000  0.08048000  1.0
  Ni  Ni33  1  0.00013000  0.18467000  0.16717000  1.0
  Ni  Ni34  1  0.07022000  0.43545000  0.12929000  1.0
  Ni  Ni35  1  0.00438000  0.40357000  0.02773000  1.0
  Ni  Ni36  1  0.91013000  0.67319000  0.41952000  1.0
  Ni  Ni37  1  0.99987000  0.68467000  0.33283000  1.0
  Ni  Ni38  1  0.92978000  0.93545000  0.37071000  1.0
  Ni  Ni39  1  0.99562000  0.90357000  0.47227000  1.0
  Ni  Ni40  1  0.58987000  0.32681000  0.91952000  1.0
  Ni  Ni41  1  0.50013000  0.31533000  0.83283000  1.0
  Ni  Ni42  1  0.57022000  0.06455000  0.87071000  1.0
  Ni  Ni43  1  0.50438000  0.09643000  0.97227000  1.0
  Ni  Ni44  1  0.41013000  0.82681000  0.58048000  1.0
  Ni  Ni45  1  0.49987000  0.81533000  0.66717000  1.0
  Ni  Ni46  1  0.42978000  0.56455000  0.62929000  1.0
  Ni  Ni47  1  0.49562000  0.59643000  0.52773000  1.0
  P  P48  1  0.05054000  0.05054000  0.05054000  1.0
  P  P49  1  0.44946000  0.94946000  0.55054000  1.0
  P  P50  1  0.94946000  0.55054000  0.44946000  1.0
  P  P51  1  0.55054000  0.44946000  0.94946000  1.0
  P  P52  1  0.97601000  0.02399000  0.52399000  1.0
  P  P53  1  0.52399000  0.97601000  0.02399000  1.0
  P  P54  1  0.02399000  0.52399000  0.97601000  1.0
  P  P55  1  0.47601000  0.47601000  0.47601000  1.0
  H  H56  1  0.15360000  0.90580000  0.22030000  1.0
  H  H57  1  0.16620000  0.90060000  0.16340000  1.0
  H  H58  1  0.26320000  0.02060000  0.16030000  1.0
  H  H59  1  0.26230000  0.00950000  0.21790000  1.0
  H  H60  1  0.21440000  0.02910000  0.46990000  1.0
  H  H61  1  0.22340000  0.04230000  0.41350000  1.0
  H  H62  1  0.14380000  0.17030000  0.42110000  1.0
  H  H63  1  0.13730000  0.16230000  0.47870000  1.0
  H  H64  1  0.23770000  0.91230000  0.24580000  1.0
  H  H65  1  0.30410000  0.93850000  0.18550000  1.0
  H  H66  1  0.26340000  0.93510000  0.13740000  1.0
  H  H67  1  0.22420000  0.82410000  0.21880000  1.0
  H  H68  1  0.28290000  0.84070000  0.20330000  1.0
  H  H69  1  0.23800000  0.83890000  0.15920000  1.0
  H  H70  1  0.21840000  0.15330000  0.41710000  1.0
  H  H71  1  0.24430000  0.10110000  0.49780000  1.0
  H  H72  1  0.26790000  0.10730000  0.44040000  1.0
  H  H73  1  0.27480000  0.19800000  0.47230000  1.0
  H  H74  1  0.22280000  0.21500000  0.50340000  1.0
  H  H75  1  0.22880000  0.22850000  0.44220000  1.0
  H  H76  1  0.34640000  0.09420000  0.72030000  1.0
  H  H77  1  0.33380000  0.09940000  0.66340000  1.0
  H  H78  1  0.23680000  0.97940000  0.66030000  1.0
  H  H79  1  0.23770000  0.99050000  0.71790000  1.0
  H  H80  1  0.28560000  0.97090000  0.96990000  1.0
  H  H81  1  0.27660000  0.95770000  0.91350000  1.0
  H  H82  1  0.35620000  0.82970000  0.92110000  1.0
  H  H83  1  0.36270000  0.83770000  0.97870000  1.0
  H  H84  1  0.26230000  0.08770000  0.74580000  1.0
  H  H85  1  0.19590000  0.06150000  0.68550000  1.0
  H  H86  1  0.23660000  0.06490000  0.63740000  1.0
  H  H87  1  0.27580000  0.17590000  0.71880000  1.0
  H  H88  1  0.21710000  0.15930000  0.70330000  1.0
  H  H89  1  0.26200000  0.16110000  0.65920000  1.0
  H  H90  1  0.28160000  0.84670000  0.91710000  1.0
  H  H91  1  0.25570000  0.89890000  0.99780000  1.0
  H  H92  1  0.23210000  0.89270000  0.94040000  1.0
  H  H93  1  0.22520000  0.80200000  0.97230000  1.0
  H  H94  1  0.27720000  0.78500000  0.00340000  1.0
  H  H95  1  0.27120000  0.77150000  0.94220000  1.0
  H  H96  1  0.84640000  0.40580000  0.27970000  1.0
  H  H97  1  0.83380000  0.40060000  0.33660000  1.0
  H  H98  1  0.73680000  0.52060000  0.33970000  1.0
  H  H99  1  0.73770000  0.50950000  0.28210000  1.0
  H  H100  1  0.78560000  0.52910000  0.03010000  1.0
  H  H101  1  0.77660000  0.54230000  0.08650000  1.0
  H  H102  1  0.85620000  0.67030000  0.07890000  1.0
  H  H103  1  0.86270000  0.66230000  0.02130000  1.0
  H  H104  1  0.76230000  0.41230000  0.25420000  1.0
  H  H105  1  0.69590000  0.43850000  0.31450000  1.0
  H  H106  1  0.73660000  0.43510000  0.36260000  1.0
  H  H107  1  0.77580000  0.32410000  0.28120000  1.0
  H  H108  1  0.71710000  0.34070000  0.29670000  1.0
  H  H109  1  0.76200000  0.33890000  0.34080000  1.0
  H  H110  1  0.78160000  0.65330000  0.08290000  1.0
  H  H111  1  0.75570000  0.60110000  0.00220000  1.0
  H  H112  1  0.73210000  0.60730000  0.05960000  1.0
  H  H113  1  0.72520000  0.69800000  0.02770000  1.0
  H  H114  1  0.77720000  0.71500000  0.99660000  1.0
  H  H115  1  0.77120000  0.72850000  0.05780000  1.0
  H  H116  1  0.65360000  0.59420000  0.77970000  1.0
  H  H117  1  0.66620000  0.59940000  0.83660000  1.0
  H  H118  1  0.76320000  0.47940000  0.83970000  1.0
  H  H119  1  0.76230000  0.49050000  0.78210000  1.0
  H  H120  1  0.71440000  0.47090000  0.53010000  1.0
  H  H121  1  0.72340000  0.45770000  0.58650000  1.0
  H  H122  1  0.64380000  0.32970000  0.57890000  1.0
  H  H123  1  0.63730000  0.33770000  0.52130000  1.0
  H  H124  1  0.73770000  0.58770000  0.75420000  1.0
  H  H125  1  0.80410000  0.56150000  0.81450000  1.0
  H  H126  1  0.76340000  0.56490000  0.86260000  1.0
  H  H127  1  0.72420000  0.67590000  0.78120000  1.0
  H  H128  1  0.78290000  0.65930000  0.79670000  1.0
  H  H129  1  0.73800000  0.66110000  0.84080000  1.0
  H  H130  1  0.71840000  0.34670000  0.58290000  1.0
  H  H131  1  0.74430000  0.39890000  0.50220000  1.0
  H  H132  1  0.76790000  0.39270000  0.55960000  1.0
  H  H133  1  0.77480000  0.30200000  0.52770000  1.0
  H  H134  1  0.72280000  0.28500000  0.49660000  1.0
  H  H135  1  0.72880000  0.27150000  0.55780000  1.0
  H  H136  1  0.22030000  0.15360000  0.90580000  1.0
  H  H137  1  0.16340000  0.16620000  0.90060000  1.0
  H  H138  1  0.16030000  0.26320000  0.02060000  1.0
  H  H139  1  0.21790000  0.26230000  0.00950000  1.0
  H  H140  1  0.46990000  0.21440000  0.02910000  1.0
  H  H141  1  0.41350000  0.22340000  0.04230000  1.0
  H  H142  1  0.42110000  0.14380000  0.17030000  1.0
  H  H143  1  0.47870000  0.13730000  0.16230000  1.0
  H  H144  1  0.24580000  0.23770000  0.91230000  1.0
  H  H145  1  0.18550000  0.30410000  0.93850000  1.0
  H  H146  1  0.13740000  0.26340000  0.93510000  1.0
  H  H147  1  0.21880000  0.22420000  0.82410000  1.0
  H  H148  1  0.20330000  0.28290000  0.84070000  1.0
  H  H149  1  0.15920000  0.23800000  0.83890000  1.0
  H  H150  1  0.41710000  0.21840000  0.15330000  1.0
  H  H151  1  0.49780000  0.24430000  0.10110000  1.0
  H  H152  1  0.44040000  0.26790000  0.10730000  1.0
  H  H153  1  0.47230000  0.27480000  0.19800000  1.0
  H  H154  1  0.50340000  0.22280000  0.21500000  1.0
  H  H155  1  0.44220000  0.22880000  0.22850000  1.0
  H  H156  1  0.72030000  0.34640000  0.09420000  1.0
  H  H157  1  0.66340000  0.33380000  0.09940000  1.0
  H  H158  1  0.66030000  0.23680000  0.97940000  1.0
  H  H159  1  0.71790000  0.23770000  0.99050000  1.0
  H  H160  1  0.96990000  0.28560000  0.97090000  1.0
  H  H161  1  0.91350000  0.27660000  0.95770000  1.0
  H  H162  1  0.92110000  0.35620000  0.82970000  1.0
  H  H163  1  0.97870000  0.36270000  0.83770000  1.0
  H  H164  1  0.74580000  0.26230000  0.08770000  1.0
  H  H165  1  0.68550000  0.19590000  0.06150000  1.0
  H  H166  1  0.63740000  0.23660000  0.06490000  1.0
  H  H167  1  0.71880000  0.27580000  0.17590000  1.0
  H  H168  1  0.70330000  0.21710000  0.15930000  1.0
  H  H169  1  0.65920000  0.26200000  0.16110000  1.0
  H  H170  1  0.91710000  0.28160000  0.84670000  1.0
  H  H171  1  0.99780000  0.25570000  0.89890000  1.0
  H  H172  1  0.94040000  0.23210000  0.89270000  1.0
  H  H173  1  0.97230000  0.22520000  0.80200000  1.0
  H  H174  1  0.00340000  0.27720000  0.78500000  1.0
  H  H175  1  0.94220000  0.27120000  0.77150000  1.0
  H  H176  1  0.27970000  0.84640000  0.40580000  1.0
  H  H177  1  0.33660000  0.83380000  0.40060000  1.0
  H  H178  1  0.33970000  0.73680000  0.52060000  1.0
  H  H179  1  0.28210000  0.73770000  0.50950000  1.0
  H  H180  1  0.03010000  0.78560000  0.52910000  1.0
  H  H181  1  0.08650000  0.77660000  0.54230000  1.0
  H  H182  1  0.07890000  0.85620000  0.67030000  1.0
  H  H183  1  0.02130000  0.86270000  0.66230000  1.0
  H  H184  1  0.25420000  0.76230000  0.41230000  1.0
  H  H185  1  0.31450000  0.69590000  0.43850000  1.0
  H  H186  1  0.36260000  0.73660000  0.43510000  1.0
  H  H187  1  0.28120000  0.77580000  0.32410000  1.0
  H  H188  1  0.29670000  0.71710000  0.34070000  1.0
  H  H189  1  0.34080000  0.76200000  0.33890000  1.0
  H  H190  1  0.08290000  0.78160000  0.65330000  1.0
  H  H191  1  0.00220000  0.75570000  0.60110000  1.0
  H  H192  1  0.05960000  0.73210000  0.60730000  1.0
  H  H193  1  0.02770000  0.72520000  0.69800000  1.0
  H  H194  1  0.99660000  0.77720000  0.71500000  1.0
  H  H195  1  0.05780000  0.77120000  0.72850000  1.0
  H  H196  1  0.77970000  0.65360000  0.59420000  1.0
  H  H197  1  0.83660000  0.66620000  0.59940000  1.0
  H  H198  1  0.83970000  0.76320000  0.47940000  1.0
  H  H199  1  0.78210000  0.76230000  0.49050000  1.0
  H  H200  1  0.53010000  0.71440000  0.47090000  1.0
  H  H201  1  0.58650000  0.72340000  0.45770000  1.0
  H  H202  1  0.57890000  0.64380000  0.32970000  1.0
  H  H203  1  0.52130000  0.63730000  0.33770000  1.0
  H  H204  1  0.75420000  0.73770000  0.58770000  1.0
  H  H205  1  0.81450000  0.80410000  0.56150000  1.0
  H  H206  1  0.86260000  0.76340000  0.56490000  1.0
  H  H207  1  0.78120000  0.72420000  0.67590000  1.0
  H  H208  1  0.79670000  0.78290000  0.65930000  1.0
  H  H209  1  0.84080000  0.73800000  0.66110000  1.0
  H  H210  1  0.58290000  0.71840000  0.34670000  1.0
  H  H211  1  0.50220000  0.74430000  0.39890000  1.0
  H  H212  1  0.55960000  0.76790000  0.39270000  1.0
  H  H213  1  0.52770000  0.77480000  0.30200000  1.0
  H  H214  1  0.49660000  0.72280000  0.28500000  1.0
  H  H215  1  0.55780000  0.72880000  0.27150000  1.0
  H  H216  1  0.90580000  0.22030000  0.15360000  1.0
  H  H217  1  0.90060000  0.16340000  0.16620000  1.0
  H  H218  1  0.02060000  0.16030000  0.26320000  1.0
  H  H219  1  0.00950000  0.21790000  0.26230000  1.0
  H  H220  1  0.02910000  0.46990000  0.21440000  1.0
  H  H221  1  0.04230000  0.41350000  0.22340000  1.0
  H  H222  1  0.17030000  0.42110000  0.14380000  1.0
  H  H223  1  0.16230000  0.47870000  0.13730000  1.0
  H  H224  1  0.91230000  0.24580000  0.23770000  1.0
  H  H225  1  0.93850000  0.18550000  0.30410000  1.0
  H  H226  1  0.93510000  0.13740000  0.26340000  1.0
  H  H227  1  0.82410000  0.21880000  0.22420000  1.0
  H  H228  1  0.84070000  0.20330000  0.28290000  1.0
  H  H229  1  0.83890000  0.15920000  0.23800000  1.0
  H  H230  1  0.15330000  0.41710000  0.21840000  1.0
  H  H231  1  0.10110000  0.49780000  0.24430000  1.0
  H  H232  1  0.10730000  0.44040000  0.26790000  1.0
  H  H233  1  0.19800000  0.47230000  0.27480000  1.0
  H  H234  1  0.21500000  0.50340000  0.22280000  1.0
  H  H235  1  0.22850000  0.44220000  0.22880000  1.0
  H  H236  1  0.09420000  0.72030000  0.34640000  1.0
  H  H237  1  0.09940000  0.66340000  0.33380000  1.0
  H  H238  1  0.97940000  0.66030000  0.23680000  1.0
  H  H239  1  0.99050000  0.71790000  0.23770000  1.0
  H  H240  1  0.97090000  0.96990000  0.28560000  1.0
  H  H241  1  0.95770000  0.91350000  0.27660000  1.0
  H  H242  1  0.82970000  0.92110000  0.35620000  1.0
  H  H243  1  0.83770000  0.97870000  0.36270000  1.0
  H  H244  1  0.08770000  0.74580000  0.26230000  1.0
  H  H245  1  0.06150000  0.68550000  0.19590000  1.0
  H  H246  1  0.06490000  0.63740000  0.23660000  1.0
  H  H247  1  0.17590000  0.71880000  0.27580000  1.0
  H  H248  1  0.15930000  0.70330000  0.21710000  1.0
  H  H249  1  0.16110000  0.65920000  0.26200000  1.0
  H  H250  1  0.84670000  0.91710000  0.28160000  1.0
  H  H251  1  0.89890000  0.99780000  0.25570000  1.0
  H  H252  1  0.89270000  0.94040000  0.23210000  1.0
  H  H253  1  0.80200000  0.97230000  0.22520000  1.0
  H  H254  1  0.78500000  0.00340000  0.27720000  1.0
  H  H255  1  0.77150000  0.94220000  0.27120000  1.0
  H  H256  1  0.40580000  0.27970000  0.84640000  1.0
  H  H257  1  0.40060000  0.33660000  0.83380000  1.0
  H  H258  1  0.52060000  0.33970000  0.73680000  1.0
  H  H259  1  0.50950000  0.28210000  0.73770000  1.0
  H  H260  1  0.52910000  0.03010000  0.78560000  1.0
  H  H261  1  0.54230000  0.08650000  0.77660000  1.0
  H  H262  1  0.67030000  0.07890000  0.85620000  1.0
  H  H263  1  0.66230000  0.02130000  0.86270000  1.0
  H  H264  1  0.41230000  0.25420000  0.76230000  1.0
  H  H265  1  0.43850000  0.31450000  0.69590000  1.0
  H  H266  1  0.43510000  0.36260000  0.73660000  1.0
  H  H267  1  0.32410000  0.28120000  0.77580000  1.0
  H  H268  1  0.34070000  0.29670000  0.71710000  1.0
  H  H269  1  0.33890000  0.34080000  0.76200000  1.0
  H  H270  1  0.65330000  0.08290000  0.78160000  1.0
  H  H271  1  0.60110000  0.00220000  0.75570000  1.0
  H  H272  1  0.60730000  0.05960000  0.73210000  1.0
  H  H273  1  0.69800000  0.02770000  0.72520000  1.0
  H  H274  1  0.71500000  0.99660000  0.77720000  1.0
  H  H275  1  0.72850000  0.05780000  0.77120000  1.0
  H  H276  1  0.59420000  0.77970000  0.65360000  1.0
  H  H277  1  0.59940000  0.83660000  0.66620000  1.0
  H  H278  1  0.47940000  0.83970000  0.76320000  1.0
  H  H279  1  0.49050000  0.78210000  0.76230000  1.0
  H  H280  1  0.47090000  0.53010000  0.71440000  1.0
  H  H281  1  0.45770000  0.58650000  0.72340000  1.0
  H  H282  1  0.32970000  0.57890000  0.64380000  1.0
  H  H283  1  0.33770000  0.52130000  0.63730000  1.0
  H  H284  1  0.58770000  0.75420000  0.73770000  1.0
  H  H285  1  0.56150000  0.81450000  0.80410000  1.0
  H  H286  1  0.56490000  0.86260000  0.76340000  1.0
  H  H287  1  0.67590000  0.78120000  0.72420000  1.0
  H  H288  1  0.65930000  0.79670000  0.78290000  1.0
  H  H289  1  0.66110000  0.84080000  0.73800000  1.0
  H  H290  1  0.34670000  0.58290000  0.71840000  1.0
  H  H291  1  0.39890000  0.50220000  0.74430000  1.0
  H  H292  1  0.39270000  0.55960000  0.76790000  1.0
  H  H293  1  0.30200000  0.52770000  0.77480000  1.0
  H  H294  1  0.28500000  0.49660000  0.72280000  1.0
  H  H295  1  0.27150000  0.55780000  0.72880000  1.0
  W  W296  1  0.14632000  0.94559000  0.05344000  1.0
  W  W297  1  0.05262000  0.94290000  0.95188000  1.0
  W  W298  1  0.15408000  0.03758000  0.95338000  1.0
  W  W299  1  0.97485000  0.10682000  0.64431000  1.0
  W  W300  1  0.08992000  0.09962000  0.56866000  1.0
  W  W301  1  0.05022000  0.99048000  0.63998000  1.0
  W  W302  1  0.10507000  0.04908000  0.29943000  1.0
  W  W303  1  0.35368000  0.05441000  0.55344000  1.0
  W  W304  1  0.44738000  0.05710000  0.45188000  1.0
  W  W305  1  0.34592000  0.96242000  0.45338000  1.0
  W  W306  1  0.52515000  0.89318000  0.14431000  1.0
  W  W307  1  0.41008000  0.90038000  0.06866000  1.0
  W  W308  1  0.44978000  0.00952000  0.13998000  1.0
  W  W309  1  0.39493000  0.95092000  0.79943000  1.0
  W  W310  1  0.85368000  0.44559000  0.44656000  1.0
  W  W311  1  0.94738000  0.44290000  0.54811000  1.0
  W  W312  1  0.84592000  0.53758000  0.54662000  1.0
  W  W313  1  0.02515000  0.60682000  0.85569000  1.0
  W  W314  1  0.91008000  0.59962000  0.93134000  1.0
  W  W315  1  0.94978000  0.49048000  0.86002000  1.0
  W  W316  1  0.89493000  0.54908000  0.20057000  1.0
  W  W317  1  0.64632000  0.55441000  0.94656000  1.0
  W  W318  1  0.55262000  0.55710000  0.04811000  1.0
  W  W319  1  0.65408000  0.46242000  0.04662000  1.0
  W  W320  1  0.47485000  0.39318000  0.35569000  1.0
  W  W321  1  0.58992000  0.40038000  0.43134000  1.0
  W  W322  1  0.55022000  0.50952000  0.36002000  1.0
  W  W323  1  0.60507000  0.45092000  0.70057000  1.0
  W  W324  1  0.05344000  0.14632000  0.94559000  1.0
  W  W325  1  0.95188000  0.05262000  0.94290000  1.0
  W  W326  1  0.95338000  0.15408000  0.03758000  1.0
  W  W327  1  0.64431000  0.97485000  0.10682000  1.0
  W  W328  1  0.56866000  0.08992000  0.09962000  1.0
  W  W329  1  0.63998000  0.05022000  0.99048000  1.0
  W  W330  1  0.29943000  0.10507000  0.04908000  1.0
  W  W331  1  0.55344000  0.35368000  0.05441000  1.0
  W  W332  1  0.45189000  0.44738000  0.05710000  1.0
  W  W333  1  0.45338000  0.34592000  0.96242000  1.0
  W  W334  1  0.14431000  0.52515000  0.89318000  1.0
  W  W335  1  0.06866000  0.41008000  0.90038000  1.0
  W  W336  1  0.13998000  0.44978000  0.00952000  1.0
  W  W337  1  0.79943000  0.39493000  0.95092000  1.0
  W  W338  1  0.44656000  0.85368000  0.44559000  1.0
  W  W339  1  0.54811000  0.94738000  0.44290000  1.0
  W  W340  1  0.54662000  0.84592000  0.53758000  1.0
  W  W341  1  0.85569000  0.02515000  0.60682000  1.0
  W  W342  1  0.93134000  0.91008000  0.59962000  1.0
  W  W343  1  0.86002000  0.94978000  0.49048000  1.0
  W  W344  1  0.20057000  0.89493000  0.54908000  1.0
  W  W345  1  0.94656000  0.64632000  0.55441000  1.0
  W  W346  1  0.04811000  0.55262000  0.55710000  1.0
  W  W347  1  0.04662000  0.65408000  0.46242000  1.0
  W  W348  1  0.35569000  0.47485000  0.39318000  1.0
  W  W349  1  0.43134000  0.58992000  0.40038000  1.0
  W  W350  1  0.36002000  0.55022000  0.50952000  1.0
  W  W351  1  0.70057000  0.60507000  0.45092000  1.0
  W  W352  1  0.94559000  0.05344000  0.14632000  1.0
  W  W353  1  0.94290000  0.95188000  0.05262000  1.0
  W  W354  1  0.03758000  0.95338000  0.15408000  1.0
  W  W355  1  0.10682000  0.64431000  0.97485000  1.0
  W  W356  1  0.09962000  0.56866000  0.08992000  1.0
  W  W357  1  0.99048000  0.63998000  0.05022000  1.0
  W  W358  1  0.04908000  0.29943000  0.10507000  1.0
  W  W359  1  0.05441000  0.55344000  0.35368000  1.0
  W  W360  1  0.05710000  0.45188000  0.44738000  1.0
  W  W361  1  0.96242000  0.45338000  0.34592000  1.0
  W  W362  1  0.89318000  0.14431000  0.52515000  1.0
  W  W363  1  0.90038000  0.06866000  0.41008000  1.0
  W  W364  1  0.00952000  0.13998000  0.44978000  1.0
  W  W365  1  0.95092000  0.79943000  0.39493000  1.0
  W  W366  1  0.44559000  0.44656000  0.85368000  1.0
  W  W367  1  0.44290000  0.54811000  0.94738000  1.0
  W  W368  1  0.53758000  0.54662000  0.84592000  1.0
  W  W369  1  0.60682000  0.85569000  0.02515000  1.0
  W  W370  1  0.59962000  0.93134000  0.91008000  1.0
  W  W371  1  0.49048000  0.86002000  0.94978000  1.0
  W  W372  1  0.54908000  0.20057000  0.89493000  1.0
  W  W373  1  0.55441000  0.94656000  0.64632000  1.0
  W  W374  1  0.55710000  0.04811000  0.55262000  1.0
  W  W375  1  0.46242000  0.04662000  0.65408000  1.0
  W  W376  1  0.39318000  0.35569000  0.47485000  1.0
  W  W377  1  0.40038000  0.43134000  0.58992000  1.0
  W  W378  1  0.50952000  0.36002000  0.55022000  1.0
  W  W379  1  0.45092000  0.70057000  0.60507000  1.0
  C  C380  1  0.23200000  0.90530000  0.20760000  1.0
  C  C381  1  0.26680000  0.94300000  0.17540000  1.0
  C  C382  1  0.24550000  0.84680000  0.19620000  1.0
  C  C383  1  0.21100000  0.15010000  0.45560000  1.0
  C  C384  1  0.23460000  0.10470000  0.46030000  1.0
  C  C385  1  0.23670000  0.20260000  0.46970000  1.0
  C  C386  1  0.26800000  0.09470000  0.70760000  1.0
  C  C387  1  0.23320000  0.05700000  0.67540000  1.0
  C  C388  1  0.25450000  0.15320000  0.69620000  1.0
  C  C389  1  0.28900000  0.84990000  0.95560000  1.0
  C  C390  1  0.26540000  0.89530000  0.96030000  1.0
  C  C391  1  0.26330000  0.79740000  0.96970000  1.0
  C  C392  1  0.76800000  0.40530000  0.29240000  1.0
  C  C393  1  0.73320000  0.44300000  0.32460000  1.0
  C  C394  1  0.75450000  0.34680000  0.30380000  1.0
  C  C395  1  0.78900000  0.65010000  0.04440000  1.0
  C  C396  1  0.76540000  0.60470000  0.03970000  1.0
  C  C397  1  0.76330000  0.70260000  0.03030000  1.0
  C  C398  1  0.73200000  0.59470000  0.79240000  1.0
  C  C399  1  0.76680000  0.55700000  0.82460000  1.0
  C  C400  1  0.74550000  0.65320000  0.80380000  1.0
  C  C401  1  0.71100000  0.34990000  0.54440000  1.0
  C  C402  1  0.73460000  0.39530000  0.53970000  1.0
  C  C403  1  0.73670000  0.29740000  0.53030000  1.0
  C  C404  1  0.20760000  0.23200000  0.90530000  1.0
  C  C405  1  0.17540000  0.26680000  0.94300000  1.0
  C  C406  1  0.19620000  0.24550000  0.84680000  1.0
  C  C407  1  0.45560000  0.21100000  0.15010000  1.0
  C  C408  1  0.46030000  0.23460000  0.10470000  1.0
  C  C409  1  0.46970000  0.23670000  0.20260000  1.0
  C  C410  1  0.70760000  0.26800000  0.09470000  1.0
  C  C411  1  0.67540000  0.23320000  0.05700000  1.0
  C  C412  1  0.69620000  0.25450000  0.15320000  1.0
  C  C413  1  0.95560000  0.28900000  0.84990000  1.0
  C  C414  1  0.96030000  0.26540000  0.89530000  1.0
  C  C415  1  0.96970000  0.26330000  0.79740000  1.0
  C  C416  1  0.29240000  0.76800000  0.40530000  1.0
  C  C417  1  0.32460000  0.73320000  0.44300000  1.0
  C  C418  1  0.30380000  0.75450000  0.34680000  1.0
  C  C419  1  0.04440000  0.78900000  0.65010000  1.0
  C  C420  1  0.03970000  0.76540000  0.60470000  1.0
  C  C421  1  0.03030000  0.76330000  0.70260000  1.0
  C  C422  1  0.79240000  0.73200000  0.59470000  1.0
  C  C423  1  0.82460000  0.76680000  0.55700000  1.0
  C  C424  1  0.80380000  0.74550000  0.65320000  1.0
  C  C425  1  0.54440000  0.71100000  0.34990000  1.0
  C  C426  1  0.53970000  0.73460000  0.39530000  1.0
  C  C427  1  0.53030000  0.73670000  0.29740000  1.0
  C  C428  1  0.90530000  0.20760000  0.23200000  1.0
  C  C429  1  0.94300000  0.17540000  0.26680000  1.0
  C  C430  1  0.84680000  0.19620000  0.24550000  1.0
  C  C431  1  0.15010000  0.45560000  0.21100000  1.0
  C  C432  1  0.10470000  0.46030000  0.23460000  1.0
  C  C433  1  0.20260000  0.46970000  0.23670000  1.0
  C  C434  1  0.09470000  0.70760000  0.26800000  1.0
  C  C435  1  0.05700000  0.67540000  0.23320000  1.0
  C  C436  1  0.15320000  0.69620000  0.25450000  1.0
  C  C437  1  0.84990000  0.95560000  0.28900000  1.0
  C  C438  1  0.89530000  0.96030000  0.26540000  1.0
  C  C439  1  0.79740000  0.96970000  0.26330000  1.0
  C  C440  1  0.40530000  0.29240000  0.76800000  1.0
  C  C441  1  0.44300000  0.32460000  0.73320000  1.0
  C  C442  1  0.34680000  0.30380000  0.75450000  1.0
  C  C443  1  0.65010000  0.04440000  0.78900000  1.0
  C  C444  1  0.60470000  0.03970000  0.76540000  1.0
  C  C445  1  0.70260000  0.03030000  0.76330000  1.0
  C  C446  1  0.59470000  0.79240000  0.73200000  1.0
  C  C447  1  0.55700000  0.82460000  0.76680000  1.0
  C  C448  1  0.65320000  0.80380000  0.74550000  1.0
  C  C449  1  0.34990000  0.54440000  0.71100000  1.0
  C  C450  1  0.39530000  0.53970000  0.73460000  1.0
  C  C451  1  0.29740000  0.53030000  0.73670000  1.0
  N  N452  1  0.17540000  0.91740000  0.19400000  1.0
  N  N453  1  0.25000000  0.99860000  0.18570000  1.0
  N  N454  1  0.20930000  0.05420000  0.44450000  1.0
  N  N455  1  0.15330000  0.14950000  0.44900000  1.0
  N  N456  1  0.32460000  0.08260000  0.69400000  1.0
  N  N457  1  0.25000000  0.00140000  0.68570000  1.0
  N  N458  1  0.29070000  0.94580000  0.94450000  1.0
  N  N459  1  0.34670000  0.85050000  0.94900000  1.0
  N  N460  1  0.82460000  0.41740000  0.30600000  1.0
  N  N461  1  0.75000000  0.49860000  0.31430000  1.0
  N  N462  1  0.79070000  0.55420000  0.05550000  1.0
  N  N463  1  0.84670000  0.64950000  0.05100000  1.0
  N  N464  1  0.67540000  0.58260000  0.80600000  1.0
  N  N465  1  0.75000000  0.50140000  0.81430000  1.0
  N  N466  1  0.70930000  0.44580000  0.55550000  1.0
  N  N467  1  0.65330000  0.35050000  0.55100000  1.0
  N  N468  1  0.19400000  0.17540000  0.91740000  1.0
  N  N469  1  0.18570000  0.25000000  0.99860000  1.0
  N  N470  1  0.44450000  0.20930000  0.05420000  1.0
  N  N471  1  0.44900000  0.15330000  0.14950000  1.0
  N  N472  1  0.69400000  0.32460000  0.08260000  1.0
  N  N473  1  0.68570000  0.25000000  0.00140000  1.0
  N  N474  1  0.94450000  0.29070000  0.94580000  1.0
  N  N475  1  0.94900000  0.34670000  0.85050000  1.0
  N  N476  1  0.30600000  0.82460000  0.41740000  1.0
  N  N477  1  0.31430000  0.75000000  0.49860000  1.0
  N  N478  1  0.05550000  0.79070000  0.55420000  1.0
  N  N479  1  0.05100000  0.84670000  0.64950000  1.0
  N  N480  1  0.80600000  0.67540000  0.58260000  1.0
  N  N481  1  0.81430000  0.75000000  0.50140000  1.0
  N  N482  1  0.55550000  0.70930000  0.44580000  1.0
  N  N483  1  0.55100000  0.65330000  0.35050000  1.0
  N  N484  1  0.91740000  0.19400000  0.17540000  1.0
  N  N485  1  0.99860000  0.18570000  0.25000000  1.0
  N  N486  1  0.05420000  0.44450000  0.20930000  1.0
  N  N487  1  0.14950000  0.44900000  0.15330000  1.0
  N  N488  1  0.08260000  0.69400000  0.32460000  1.0
  N  N489  1  0.00140000  0.68570000  0.25000000  1.0
  N  N490  1  0.94580000  0.94450000  0.29070000  1.0
  N  N491  1  0.85050000  0.94900000  0.34670000  1.0
  N  N492  1  0.41740000  0.30600000  0.82460000  1.0
  N  N493  1  0.49860000  0.31430000  0.75000000  1.0
  N  N494  1  0.55420000  0.05550000  0.79070000  1.0
  N  N495  1  0.64950000  0.05100000  0.84670000  1.0
  N  N496  1  0.58260000  0.80600000  0.67540000  1.0
  N  N497  1  0.50140000  0.81430000  0.75000000  1.0
  N  N498  1  0.44580000  0.55550000  0.70930000  1.0
  N  N499  1  0.35050000  0.55100000  0.65330000  1.0
  O  O500  1  0.16800000  0.99820000  0.09850000  1.0
  O  O501  1  0.10465000  0.99192000  0.42658000  1.0
  O  O502  1  0.08060000  0.09760000  0.25380000  1.0
  O  O503  1  0.16100000  0.08002000  0.16962000  1.0
  O  O504  1  0.08250000  0.00600000  0.17530000  1.0
  O  O505  1  0.08580000  0.01070000  0.01630000  1.0
  O  O506  1  0.08650000  0.93000000  0.10010000  1.0
  O  O507  1  0.04590000  0.08238000  0.42430000  1.0
  O  O508  1  0.11090000  0.05290000  0.51690000  1.0
  O  O509  1  0.10030000  0.04920000  0.62390000  1.0
  O  O510  1  0.94030000  0.14340000  0.58750000  1.0
  O  O511  1  0.99900000  0.92970000  0.00540000  1.0
  O  O512  1  0.98470000  0.95260000  0.63890000  1.0
  O  O513  1  0.18220000  0.97750000  0.99350000  1.0
  O  O514  1  0.13780000  0.08340000  0.35290000  1.0
  O  O515  1  0.04020000  0.13430000  0.62200000  1.0
  O  O516  1  0.01100000  0.04880000  0.67760000  1.0
  O  O517  1  0.10300000  0.90810000  0.99650000  1.0
  O  O518  1  0.05160000  0.01100000  0.32470000  1.0
  O  O519  1  0.10920000  0.98060000  0.91790000  1.0
  O  O520  1  0.15390000  0.00810000  0.26750000  1.0
  O  O521  1  0.00770000  0.04600000  0.57310000  1.0
  O  O522  1  0.33200000  0.00180000  0.59850000  1.0
  O  O523  1  0.39535000  0.00808000  0.92658000  1.0
  O  O524  1  0.41940000  0.90240000  0.75380000  1.0
  O  O525  1  0.33900000  0.91998000  0.66962000  1.0
  O  O526  1  0.41750000  0.99400000  0.67530000  1.0
  O  O527  1  0.41420000  0.98930000  0.51630000  1.0
  O  O528  1  0.41350000  0.07000000  0.60010000  1.0
  O  O529  1  0.45410000  0.91762000  0.92430000  1.0
  O  O530  1  0.38910000  0.94710000  0.01690000  1.0
  O  O531  1  0.39970000  0.95080000  0.12390000  1.0
  O  O532  1  0.55970000  0.85660000  0.08750000  1.0
  O  O533  1  0.50100000  0.07030000  0.50540000  1.0
  O  O534  1  0.51530000  0.04740000  0.13890000  1.0
  O  O535  1  0.31780000  0.02250000  0.49350000  1.0
  O  O536  1  0.36220000  0.91660000  0.85290000  1.0
  O  O537  1  0.45980000  0.86570000  0.12200000  1.0
  O  O538  1  0.48900000  0.95120000  0.17760000  1.0
  O  O539  1  0.39700000  0.09190000  0.49650000  1.0
  O  O540  1  0.44840000  0.98900000  0.82470000  1.0
  O  O541  1  0.39080000  0.01940000  0.41790000  1.0
  O  O542  1  0.34610000  0.99190000  0.76750000  1.0
  O  O543  1  0.49230000  0.95400000  0.07310000  1.0
  O  O544  1  0.83200000  0.49820000  0.40150000  1.0
  O  O545  1  0.89535000  0.49192000  0.07342000  1.0
  O  O546  1  0.91940000  0.59760000  0.24620000  1.0
  O  O547  1  0.83900000  0.58002000  0.33038000  1.0
  O  O548  1  0.91750000  0.50600000  0.32470000  1.0
  O  O549  1  0.91420000  0.51070000  0.48370000  1.0
  O  O550  1  0.91350000  0.43000000  0.39990000  1.0
  O  O551  1  0.95410000  0.58238000  0.07570000  1.0
  O  O552  1  0.88910000  0.55290000  0.98310000  1.0
  O  O553  1  0.89970000  0.54920000  0.87610000  1.0
  O  O554  1  0.05970000  0.64340000  0.91250000  1.0
  O  O555  1  0.00100000  0.42970000  0.49460000  1.0
  O  O556  1  0.01530000  0.45260000  0.86110000  1.0
  O  O557  1  0.81780000  0.47750000  0.50650000  1.0
  O  O558  1  0.86220000  0.58340000  0.14710000  1.0
  O  O559  1  0.95980000  0.63430000  0.87800000  1.0
  O  O560  1  0.98900000  0.54880000  0.82240000  1.0
  O  O561  1  0.89700000  0.40810000  0.50350000  1.0
  O  O562  1  0.94840000  0.51100000  0.17530000  1.0
  O  O563  1  0.89080000  0.48060000  0.58210000  1.0
  O  O564  1  0.84610000  0.50810000  0.23250000  1.0
  O  O565  1  0.99230000  0.54600000  0.92690000  1.0
  O  O566  1  0.66800000  0.50180000  0.90150000  1.0
  O  O567  1  0.60465000  0.50808000  0.57342000  1.0
  O  O568  1  0.58060000  0.40240000  0.74620000  1.0
  O  O569  1  0.66100000  0.41998000  0.83038000  1.0
  O  O570  1  0.58250000  0.49400000  0.82470000  1.0
  O  O571  1  0.58580000  0.48930000  0.98370000  1.0
  O  O572  1  0.58650000  0.57000000  0.89990000  1.0
  O  O573  1  0.54590000  0.41762000  0.57570000  1.0
  O  O574  1  0.61090000  0.44710000  0.48310000  1.0
  O  O575  1  0.60030000  0.45080000  0.37610000  1.0
  O  O576  1  0.44030000  0.35660000  0.41250000  1.0
  O  O577  1  0.49900000  0.57030000  0.99460000  1.0
  O  O578  1  0.48470000  0.54740000  0.36110000  1.0
  O  O579  1  0.68220000  0.52250000  0.00650000  1.0
  O  O580  1  0.63780000  0.41660000  0.64710000  1.0
  O  O581  1  0.54020000  0.36570000  0.37800000  1.0
  O  O582  1  0.51100000  0.45120000  0.32240000  1.0
  O  O583  1  0.60300000  0.59190000  0.00350000  1.0
  O  O584  1  0.55160000  0.48900000  0.67530000  1.0
  O  O585  1  0.60920000  0.51940000  0.08210000  1.0
  O  O586  1  0.65390000  0.49190000  0.73250000  1.0
  O  O587  1  0.50770000  0.45400000  0.42690000  1.0
  O  O588  1  0.09850000  0.16800000  0.99820000  1.0
  O  O589  1  0.42658000  0.10465000  0.99192000  1.0
  O  O590  1  0.25380000  0.08060000  0.09760000  1.0
  O  O591  1  0.16962000  0.16100000  0.08002000  1.0
  O  O592  1  0.17530000  0.08250000  0.00600000  1.0
  O  O593  1  0.01630000  0.08580000  0.01070000  1.0
  O  O594  1  0.10010000  0.08650000  0.93000000  1.0
  O  O595  1  0.42430000  0.04590000  0.08238000  1.0
  O  O596  1  0.51690000  0.11090000  0.05290000  1.0
  O  O597  1  0.62390000  0.10030000  0.04920000  1.0
  O  O598  1  0.58750000  0.94030000  0.14340000  1.0
  O  O599  1  0.00540000  0.99900000  0.92970000  1.0
  O  O600  1  0.63890000  0.98470000  0.95260000  1.0
  O  O601  1  0.99350000  0.18220000  0.97750000  1.0
  O  O602  1  0.35290000  0.13780000  0.08340000  1.0
  O  O603  1  0.62200000  0.04020000  0.13430000  1.0
  O  O604  1  0.67760000  0.01100000  0.04880000  1.0
  O  O605  1  0.99650000  0.10300000  0.90810000  1.0
  O  O606  1  0.32470000  0.05160000  0.01100000  1.0
  O  O607  1  0.91790000  0.10920000  0.98060000  1.0
  O  O608  1  0.26750000  0.15390000  0.00810000  1.0
  O  O609  1  0.57310000  0.00770000  0.04600000  1.0
  O  O610  1  0.59850000  0.33200000  0.00180000  1.0
  O  O611  1  0.92658000  0.39535000  0.00808000  1.0
  O  O612  1  0.75380000  0.41940000  0.90240000  1.0
  O  O613  1  0.66962000  0.33900000  0.91998000  1.0
  O  O614  1  0.67530000  0.41750000  0.99400000  1.0
  O  O615  1  0.51630000  0.41420000  0.98930000  1.0
  O  O616  1  0.60010000  0.41350000  0.07000000  1.0
  O  O617  1  0.92430000  0.45410000  0.91762000  1.0
  O  O618  1  0.01690000  0.38910000  0.94710000  1.0
  O  O619  1  0.12390000  0.39970000  0.95080000  1.0
  O  O620  1  0.08750000  0.55970000  0.85660000  1.0
  O  O621  1  0.50540000  0.50100000  0.07030000  1.0
  O  O622  1  0.13890000  0.51530000  0.04740000  1.0
  O  O623  1  0.49350000  0.31780000  0.02250000  1.0
  O  O624  1  0.85290000  0.36220000  0.91660000  1.0
  O  O625  1  0.12200000  0.45980000  0.86570000  1.0
  O  O626  1  0.17760000  0.48900000  0.95120000  1.0
  O  O627  1  0.49650000  0.39700000  0.09190000  1.0
  O  O628  1  0.82470000  0.44840000  0.98900000  1.0
  O  O629  1  0.41790000  0.39080000  0.01940000  1.0
  O  O630  1  0.76750000  0.34610000  0.99190000  1.0
  O  O631  1  0.07310000  0.49230000  0.95400000  1.0
  O  O632  1  0.40150000  0.83200000  0.49820000  1.0
  O  O633  1  0.07342000  0.89535000  0.49192000  1.0
  O  O634  1  0.24620000  0.91940000  0.59760000  1.0
  O  O635  1  0.33038000  0.83900000  0.58002000  1.0
  O  O636  1  0.32470000  0.91750000  0.50600000  1.0
  O  O637  1  0.48370000  0.91420000  0.51070000  1.0
  O  O638  1  0.39990000  0.91350000  0.43000000  1.0
  O  O639  1  0.07570000  0.95410000  0.58238000  1.0
  O  O640  1  0.98310000  0.88910000  0.55290000  1.0
  O  O641  1  0.87610000  0.89970000  0.54920000  1.0
  O  O642  1  0.91250000  0.05970000  0.64340000  1.0
  O  O643  1  0.49460000  0.00100000  0.42970000  1.0
  O  O644  1  0.86110000  0.01530000  0.45260000  1.0
  O  O645  1  0.50650000  0.81780000  0.47750000  1.0
  O  O646  1  0.14710000  0.86220000  0.58340000  1.0
  O  O647  1  0.87800000  0.95980000  0.63430000  1.0
  O  O648  1  0.82240000  0.98900000  0.54880000  1.0
  O  O649  1  0.50350000  0.89700000  0.40810000  1.0
  O  O650  1  0.17530000  0.94840000  0.51100000  1.0
  O  O651  1  0.58210000  0.89080000  0.48060000  1.0
  O  O652  1  0.23250000  0.84610000  0.50810000  1.0
  O  O653  1  0.92690000  0.99230000  0.54600000  1.0
  O  O654  1  0.90150000  0.66800000  0.50180000  1.0
  O  O655  1  0.57342000  0.60465000  0.50808000  1.0
  O  O656  1  0.74620000  0.58060000  0.40240000  1.0
  O  O657  1  0.83038000  0.66100000  0.41998000  1.0
  O  O658  1  0.82470000  0.58250000  0.49400000  1.0
  O  O659  1  0.98370000  0.58580000  0.48930000  1.0
  O  O660  1  0.89990000  0.58650000  0.57000000  1.0
  O  O661  1  0.57570000  0.54590000  0.41762000  1.0
  O  O662  1  0.48310000  0.61090000  0.44710000  1.0
  O  O663  1  0.37610000  0.60030000  0.45080000  1.0
  O  O664  1  0.41250000  0.44030000  0.35660000  1.0
  O  O665  1  0.99460000  0.49900000  0.57030000  1.0
  O  O666  1  0.36110000  0.48470000  0.54740000  1.0
  O  O667  1  0.00650000  0.68220000  0.52250000  1.0
  O  O668  1  0.64710000  0.63780000  0.41660000  1.0
  O  O669  1  0.37800000  0.54020000  0.36570000  1.0
  O  O670  1  0.32240000  0.51100000  0.45120000  1.0
  O  O671  1  0.00350000  0.60300000  0.59190000  1.0
  O  O672  1  0.67530000  0.55160000  0.48900000  1.0
  O  O673  1  0.08210000  0.60920000  0.51940000  1.0
  O  O674  1  0.73250000  0.65390000  0.49190000  1.0
  O  O675  1  0.42690000  0.50770000  0.45400000  1.0
  O  O676  1  0.99820000  0.09850000  0.16800000  1.0
  O  O677  1  0.99192000  0.42658000  0.10465000  1.0
  O  O678  1  0.09760000  0.25380000  0.08060000  1.0
  O  O679  1  0.08002000  0.16962000  0.16100000  1.0
  O  O680  1  0.00600000  0.17530000  0.08250000  1.0
  O  O681  1  0.01070000  0.01630000  0.08580000  1.0
  O  O682  1  0.93000000  0.10010000  0.08650000  1.0
  O  O683  1  0.08238000  0.42430000  0.04590000  1.0
  O  O684  1  0.05290000  0.51690000  0.11090000  1.0
  O  O685  1  0.04920000  0.62390000  0.10030000  1.0
  O  O686  1  0.14340000  0.58750000  0.94030000  1.0
  O  O687  1  0.92970000  0.00540000  0.99900000  1.0
  O  O688  1  0.95260000  0.63890000  0.98470000  1.0
  O  O689  1  0.97750000  0.99350000  0.18220000  1.0
  O  O690  1  0.08340000  0.35290000  0.13780000  1.0
  O  O691  1  0.13430000  0.62200000  0.04020000  1.0
  O  O692  1  0.04880000  0.67760000  0.01100000  1.0
  O  O693  1  0.90810000  0.99650000  0.10300000  1.0
  O  O694  1  0.01100000  0.32470000  0.05160000  1.0
  O  O695  1  0.98060000  0.91790000  0.10920000  1.0
  O  O696  1  0.00810000  0.26750000  0.15390000  1.0
  O  O697  1  0.04600000  0.57310000  0.00770000  1.0
  O  O698  1  0.00180000  0.59850000  0.33200000  1.0
  O  O699  1  0.00808000  0.92658000  0.39535000  1.0
  O  O700  1  0.90240000  0.75380000  0.41940000  1.0
  O  O701  1  0.91998000  0.66962000  0.33900000  1.0
  O  O702  1  0.99400000  0.67530000  0.41750000  1.0
  O  O703  1  0.98930000  0.51630000  0.41420000  1.0
  O  O704  1  0.07000000  0.60010000  0.41350000  1.0
  O  O705  1  0.91762000  0.92430000  0.45410000  1.0
  O  O706  1  0.94710000  0.01690000  0.38910000  1.0
  O  O707  1  0.95080000  0.12390000  0.39970000  1.0
  O  O708  1  0.85660000  0.08750000  0.55970000  1.0
  O  O709  1  0.07030000  0.50540000  0.50100000  1.0
  O  O710  1  0.04740000  0.13890000  0.51530000  1.0
  O  O711  1  0.02250000  0.49350000  0.31780000  1.0
  O  O712  1  0.91660000  0.85290000  0.36220000  1.0
  O  O713  1  0.86570000  0.12200000  0.45980000  1.0
  O  O714  1  0.95120000  0.17760000  0.48900000  1.0
  O  O715  1  0.09190000  0.49650000  0.39700000  1.0
  O  O716  1  0.98900000  0.82470000  0.44840000  1.0
  O  O717  1  0.01940000  0.41790000  0.39080000  1.0
  O  O718  1  0.99190000  0.76750000  0.34610000  1.0
  O  O719  1  0.95400000  0.07310000  0.49230000  1.0
  O  O720  1  0.49820000  0.40150000  0.83200000  1.0
  O  O721  1  0.49192000  0.07342000  0.89535000  1.0
  O  O722  1  0.59760000  0.24620000  0.91940000  1.0
  O  O723  1  0.58002000  0.33038000  0.83900000  1.0
  O  O724  1  0.50600000  0.32470000  0.91750000  1.0
  O  O725  1  0.51070000  0.48370000  0.91420000  1.0
  O  O726  1  0.43000000  0.39990000  0.91350000  1.0
  O  O727  1  0.58238000  0.07570000  0.95410000  1.0
  O  O728  1  0.55290000  0.98310000  0.88910000  1.0
  O  O729  1  0.54920000  0.87610000  0.89970000  1.0
  O  O730  1  0.64340000  0.91250000  0.05970000  1.0
  O  O731  1  0.42970000  0.49460000  0.00100000  1.0
  O  O732  1  0.45260000  0.86110000  0.01530000  1.0
  O  O733  1  0.47750000  0.50650000  0.81780000  1.0
  O  O734  1  0.58340000  0.14710000  0.86220000  1.0
  O  O735  1  0.63430000  0.87800000  0.95980000  1.0
  O  O736  1  0.54880000  0.82240000  0.98900000  1.0
  O  O737  1  0.40810000  0.50350000  0.89700000  1.0
  O  O738  1  0.51100000  0.17530000  0.94840000  1.0
  O  O739  1  0.48060000  0.58210000  0.89080000  1.0
  O  O740  1  0.50810000  0.23250000  0.84610000  1.0
  O  O741  1  0.54600000  0.92690000  0.99230000  1.0
  O  O742  1  0.50180000  0.90150000  0.66800000  1.0
  O  O743  1  0.50808000  0.57342000  0.60465000  1.0
  O  O744  1  0.40240000  0.74620000  0.58060000  1.0
  O  O745  1  0.41998000  0.83038000  0.66100000  1.0
  O  O746  1  0.49400000  0.82470000  0.58250000  1.0
  O  O747  1  0.48930000  0.98370000  0.58580000  1.0
  O  O748  1  0.57000000  0.89990000  0.58650000  1.0
  O  O749  1  0.41762000  0.57570000  0.54590000  1.0
  O  O750  1  0.44710000  0.48310000  0.61090000  1.0
  O  O751  1  0.45080000  0.37610000  0.60030000  1.0
  O  O752  1  0.35660000  0.41250000  0.44030000  1.0
  O  O753  1  0.57030000  0.99460000  0.49900000  1.0
  O  O754  1  0.54740000  0.36110000  0.48470000  1.0
  O  O755  1  0.52250000  0.00650000  0.68220000  1.0
  O  O756  1  0.41660000  0.64710000  0.63780000  1.0
  O  O757  1  0.36570000  0.37800000  0.54020000  1.0
  O  O758  1  0.45120000  0.32240000  0.51100000  1.0
  O  O759  1  0.59190000  0.00350000  0.60300000  1.0
  O  O760  1  0.48900000  0.67530000  0.55160000  1.0
  O  O761  1  0.51940000  0.08210000  0.60920000  1.0
  O  O762  1  0.49190000  0.73250000  0.65390000  1.0
  O  O763  1  0.45400000  0.42690000  0.50770000  1.0
  O  O764  1  0.08700000  0.08700000  0.08700000  1.0
  O  O765  1  0.41300000  0.91300000  0.58700000  1.0
  O  O766  1  0.91300000  0.58700000  0.41300000  1.0
  O  O767  1  0.58700000  0.41300000  0.91300000  1.0
  O  O768  1  0.01163000  0.98837000  0.48837000  1.0
  O  O769  1  0.48837000  0.01163000  0.98837000  1.0
  O  O770  1  0.98837000  0.48837000  0.01163000  1.0
  O  O771  1  0.51163000  0.51163000  0.51163000  1.0
