# generated using pymatgen
data_AgH4C6NO2
_symmetry_space_group_name_H-M   'P 1'
_cell_length_a   14.26240000
_cell_length_b   23.82600000
_cell_length_c   30.75000000
_cell_angle_alpha   90.00000000
_cell_angle_beta   90.00000000
_cell_angle_gamma   90.00000000
_symmetry_Int_Tables_number   1
_chemical_formula_structural   AgH4C6NO2
_chemical_formula_sum   'Ag64 H256 C384 N64 O128'
_cell_volume   10449.34022880
_cell_formula_units_Z   64
loop_
 _symmetry_equiv_pos_site_id
 _symmetry_equiv_pos_as_xyz
  1  'x, y, z'
loop_
 _atom_site_type_symbol
 _atom_site_label
 _atom_site_symmetry_multiplicity
 _atom_site_fract_x
 _atom_site_fract_y
 _atom_site_fract_z
 _atom_site_occupancy
  Ag  Ag0  1  0.29983000  0.93476000  0.01929000  1.0
  Ag  Ag1  1  0.14891000  0.76642000  0.21114000  1.0
  Ag  Ag2  1  0.08746000  0.72217000  0.28938000  1.0
  Ag  Ag3  1  0.97775000  0.55554000  0.48556000  1.0
  Ag  Ag4  1  0.25162000  0.04887000  0.49337000  1.0
  Ag  Ag5  1  0.00058000  0.56029000  0.97117000  1.0
  Ag  Ag6  1  0.88874000  0.73891000  0.78350000  1.0
  Ag  Ag7  1  0.84176000  0.77721000  0.70043000  1.0
  Ag  Ag8  1  0.20017000  0.56524000  0.01929000  1.0
  Ag  Ag9  1  0.35109000  0.73358000  0.21114000  1.0
  Ag  Ag10  1  0.41254000  0.77783000  0.28938000  1.0
  Ag  Ag11  1  0.52225000  0.94446000  0.48556000  1.0
  Ag  Ag12  1  0.24838000  0.45113000  0.49337000  1.0
  Ag  Ag13  1  0.49942000  0.93971000  0.97117000  1.0
  Ag  Ag14  1  0.61126000  0.76109000  0.78350000  1.0
  Ag  Ag15  1  0.65824000  0.72279000  0.70043000  1.0
  Ag  Ag16  1  0.70017000  0.43476000  0.48071000  1.0
  Ag  Ag17  1  0.85109000  0.26642000  0.28886000  1.0
  Ag  Ag18  1  0.91254000  0.22217000  0.21062000  1.0
  Ag  Ag19  1  0.02225000  0.05554000  0.01444000  1.0
  Ag  Ag20  1  0.74838000  0.54887000  0.00663000  1.0
  Ag  Ag21  1  0.99942000  0.06029000  0.52883000  1.0
  Ag  Ag22  1  0.11126000  0.23891000  0.71650000  1.0
  Ag  Ag23  1  0.15824000  0.27721000  0.79957000  1.0
  Ag  Ag24  1  0.79983000  0.06524000  0.48071000  1.0
  Ag  Ag25  1  0.64891000  0.23358000  0.28886000  1.0
  Ag  Ag26  1  0.58746000  0.27783000  0.21062000  1.0
  Ag  Ag27  1  0.47775000  0.44446000  0.01444000  1.0
  Ag  Ag28  1  0.75162000  0.95113000  0.00663000  1.0
  Ag  Ag29  1  0.50058000  0.43971000  0.52883000  1.0
  Ag  Ag30  1  0.38874000  0.26109000  0.71650000  1.0
  Ag  Ag31  1  0.34176000  0.22279000  0.79957000  1.0
  Ag  Ag32  1  0.70017000  0.06524000  0.98071000  1.0
  Ag  Ag33  1  0.85109000  0.23358000  0.78886000  1.0
  Ag  Ag34  1  0.91254000  0.27783000  0.71062000  1.0
  Ag  Ag35  1  0.02225000  0.44446000  0.51444000  1.0
  Ag  Ag36  1  0.74838000  0.95113000  0.50663000  1.0
  Ag  Ag37  1  0.99942000  0.43971000  0.02883000  1.0
  Ag  Ag38  1  0.11126000  0.26109000  0.21650000  1.0
  Ag  Ag39  1  0.15824000  0.22279000  0.29957000  1.0
  Ag  Ag40  1  0.79983000  0.43476000  0.98071000  1.0
  Ag  Ag41  1  0.64891000  0.26642000  0.78886000  1.0
  Ag  Ag42  1  0.58746000  0.22217000  0.71062000  1.0
  Ag  Ag43  1  0.47775000  0.05554000  0.51444000  1.0
  Ag  Ag44  1  0.75162000  0.54887000  0.50663000  1.0
  Ag  Ag45  1  0.50058000  0.06029000  0.02883000  1.0
  Ag  Ag46  1  0.38874000  0.23891000  0.21650000  1.0
  Ag  Ag47  1  0.34176000  0.27721000  0.29957000  1.0
  Ag  Ag48  1  0.29983000  0.56524000  0.51929000  1.0
  Ag  Ag49  1  0.14891000  0.73358000  0.71114000  1.0
  Ag  Ag50  1  0.08746000  0.77783000  0.78938000  1.0
  Ag  Ag51  1  0.97775000  0.94446000  0.98556000  1.0
  Ag  Ag52  1  0.25162000  0.45113000  0.99337000  1.0
  Ag  Ag53  1  0.00058000  0.93971000  0.47117000  1.0
  Ag  Ag54  1  0.88874000  0.76109000  0.28350000  1.0
  Ag  Ag55  1  0.84176000  0.72279000  0.20043000  1.0
  Ag  Ag56  1  0.20017000  0.93476000  0.51929000  1.0
  Ag  Ag57  1  0.35109000  0.76642000  0.71114000  1.0
  Ag  Ag58  1  0.41254000  0.72217000  0.78938000  1.0
  Ag  Ag59  1  0.52225000  0.55554000  0.98556000  1.0
  Ag  Ag60  1  0.24838000  0.04887000  0.99337000  1.0
  Ag  Ag61  1  0.49942000  0.56029000  0.47117000  1.0
  Ag  Ag62  1  0.61126000  0.73891000  0.28350000  1.0
  Ag  Ag63  1  0.65824000  0.77721000  0.20043000  1.0
  H  H64  1  0.17510000  0.81360000  0.04100000  1.0
  H  H65  1  0.30660000  0.92010000  0.11580000  1.0
  H  H66  1  0.12710000  0.76360000  0.10070000  1.0
  H  H67  1  0.26210000  0.86960000  0.17630000  1.0
  H  H68  1  0.32340000  0.90800000  0.26340000  1.0
  H  H69  1  0.20340000  0.86180000  0.37620000  1.0
  H  H70  1  0.91800000  0.57160000  0.23050000  1.0
  H  H71  1  0.03110000  0.63860000  0.12060000  1.0
  H  H72  1  0.40280000  0.98190000  0.29750000  1.0
  H  H73  1  0.84850000  0.50250000  0.18780000  1.0
  H  H74  1  0.96050000  0.62740000  0.33010000  1.0
  H  H75  1  0.12510000  0.72950000  0.39760000  1.0
  H  H76  1  0.38080000  0.99530000  0.37350000  1.0
  H  H77  1  0.86400000  0.50240000  0.11370000  1.0
  H  H78  1  0.91600000  0.58340000  0.39440000  1.0
  H  H79  1  0.08680000  0.68160000  0.45990000  1.0
  H  H80  1  0.13300000  0.49760000  0.63900000  1.0
  H  H81  1  0.96800000  0.63300000  0.62440000  1.0
  H  H82  1  0.91840000  0.68590000  0.95360000  1.0
  H  H83  1  0.04180000  0.57970000  0.87490000  1.0
  H  H84  1  0.14250000  0.51290000  0.71260000  1.0
  H  H85  1  0.86930000  0.73840000  0.89420000  1.0
  H  H86  1  0.00400000  0.63630000  0.81630000  1.0
  H  H87  1  0.06160000  0.58700000  0.74450000  1.0
  H  H88  1  0.86210000  0.76690000  0.59130000  1.0
  H  H89  1  0.71750000  0.87540000  0.66130000  1.0
  H  H90  1  0.83820000  0.81900000  0.53000000  1.0
  H  H91  1  0.68880000  0.92510000  0.59900000  1.0
  H  H92  1  0.77210000  0.87600000  0.86240000  1.0
  H  H93  1  0.67500000  0.92950000  0.74670000  1.0
  H  H94  1  0.59330000  0.00360000  0.78170000  1.0
  H  H95  1  0.60380000  0.01380000  0.85570000  1.0
  H  H96  1  0.32490000  0.68640000  0.04100000  1.0
  H  H97  1  0.19340000  0.57990000  0.11580000  1.0
  H  H98  1  0.37290000  0.73640000  0.10070000  1.0
  H  H99  1  0.23790000  0.63040000  0.17630000  1.0
  H  H100  1  0.17660000  0.59200000  0.26340000  1.0
  H  H101  1  0.29660000  0.63820000  0.37620000  1.0
  H  H102  1  0.58200000  0.92840000  0.23050000  1.0
  H  H103  1  0.46890000  0.86140000  0.12060000  1.0
  H  H104  1  0.09720000  0.51810000  0.29750000  1.0
  H  H105  1  0.65150000  0.99750000  0.18780000  1.0
  H  H106  1  0.53950000  0.87260000  0.33010000  1.0
  H  H107  1  0.37490000  0.77050000  0.39760000  1.0
  H  H108  1  0.11920000  0.50470000  0.37350000  1.0
  H  H109  1  0.63600000  0.99760000  0.11370000  1.0
  H  H110  1  0.58400000  0.91660000  0.39440000  1.0
  H  H111  1  0.41320000  0.81840000  0.45990000  1.0
  H  H112  1  0.36700000  0.00240000  0.63900000  1.0
  H  H113  1  0.53200000  0.86700000  0.62440000  1.0
  H  H114  1  0.58160000  0.81410000  0.95360000  1.0
  H  H115  1  0.45820000  0.92030000  0.87490000  1.0
  H  H116  1  0.35750000  0.98710000  0.71260000  1.0
  H  H117  1  0.63070000  0.76160000  0.89420000  1.0
  H  H118  1  0.49600000  0.86370000  0.81630000  1.0
  H  H119  1  0.43840000  0.91300000  0.74450000  1.0
  H  H120  1  0.63790000  0.73310000  0.59130000  1.0
  H  H121  1  0.78250000  0.62460000  0.66130000  1.0
  H  H122  1  0.66180000  0.68100000  0.53000000  1.0
  H  H123  1  0.81120000  0.57490000  0.59900000  1.0
  H  H124  1  0.72790000  0.62400000  0.86240000  1.0
  H  H125  1  0.82500000  0.57050000  0.74670000  1.0
  H  H126  1  0.90670000  0.49640000  0.78170000  1.0
  H  H127  1  0.89620000  0.48620000  0.85570000  1.0
  H  H128  1  0.82490000  0.31360000  0.45900000  1.0
  H  H129  1  0.69340000  0.42010000  0.38420000  1.0
  H  H130  1  0.87290000  0.26360000  0.39930000  1.0
  H  H131  1  0.73790000  0.36960000  0.32370000  1.0
  H  H132  1  0.67660000  0.40800000  0.23660000  1.0
  H  H133  1  0.79660000  0.36180000  0.12380000  1.0
  H  H134  1  0.08200000  0.07160000  0.26950000  1.0
  H  H135  1  0.96890000  0.13860000  0.37940000  1.0
  H  H136  1  0.59720000  0.48190000  0.20250000  1.0
  H  H137  1  0.15150000  0.00250000  0.31220000  1.0
  H  H138  1  0.03950000  0.12740000  0.16990000  1.0
  H  H139  1  0.87490000  0.22950000  0.10240000  1.0
  H  H140  1  0.61920000  0.49530000  0.12650000  1.0
  H  H141  1  0.13600000  0.00240000  0.38630000  1.0
  H  H142  1  0.08400000  0.08340000  0.10560000  1.0
  H  H143  1  0.91320000  0.18160000  0.04010000  1.0
  H  H144  1  0.86700000  0.99760000  0.86100000  1.0
  H  H145  1  0.03200000  0.13300000  0.87560000  1.0
  H  H146  1  0.08160000  0.18590000  0.54640000  1.0
  H  H147  1  0.95820000  0.07970000  0.62510000  1.0
  H  H148  1  0.85750000  0.01290000  0.78740000  1.0
  H  H149  1  0.13070000  0.23840000  0.60580000  1.0
  H  H150  1  0.99600000  0.13630000  0.68370000  1.0
  H  H151  1  0.93840000  0.08700000  0.75550000  1.0
  H  H152  1  0.13790000  0.26690000  0.90870000  1.0
  H  H153  1  0.28250000  0.37540000  0.83870000  1.0
  H  H154  1  0.16180000  0.31900000  0.97000000  1.0
  H  H155  1  0.31120000  0.42510000  0.90100000  1.0
  H  H156  1  0.22790000  0.37600000  0.63760000  1.0
  H  H157  1  0.32500000  0.42950000  0.75330000  1.0
  H  H158  1  0.40670000  0.50360000  0.71830000  1.0
  H  H159  1  0.39620000  0.51380000  0.64430000  1.0
  H  H160  1  0.67510000  0.18640000  0.45900000  1.0
  H  H161  1  0.80660000  0.07990000  0.38420000  1.0
  H  H162  1  0.62710000  0.23640000  0.39930000  1.0
  H  H163  1  0.76210000  0.13040000  0.32370000  1.0
  H  H164  1  0.82340000  0.09200000  0.23660000  1.0
  H  H165  1  0.70340000  0.13820000  0.12380000  1.0
  H  H166  1  0.41800000  0.42840000  0.26950000  1.0
  H  H167  1  0.53110000  0.36140000  0.37940000  1.0
  H  H168  1  0.90280000  0.01810000  0.20250000  1.0
  H  H169  1  0.34850000  0.49750000  0.31220000  1.0
  H  H170  1  0.46050000  0.37260000  0.16990000  1.0
  H  H171  1  0.62510000  0.27050000  0.10240000  1.0
  H  H172  1  0.88080000  0.00470000  0.12650000  1.0
  H  H173  1  0.36400000  0.49760000  0.38630000  1.0
  H  H174  1  0.41600000  0.41660000  0.10560000  1.0
  H  H175  1  0.58680000  0.31840000  0.04010000  1.0
  H  H176  1  0.63300000  0.50240000  0.86100000  1.0
  H  H177  1  0.46800000  0.36700000  0.87560000  1.0
  H  H178  1  0.41840000  0.31410000  0.54640000  1.0
  H  H179  1  0.54180000  0.42030000  0.62510000  1.0
  H  H180  1  0.64250000  0.48710000  0.78740000  1.0
  H  H181  1  0.36930000  0.26160000  0.60580000  1.0
  H  H182  1  0.50400000  0.36370000  0.68370000  1.0
  H  H183  1  0.56160000  0.41300000  0.75550000  1.0
  H  H184  1  0.36210000  0.23310000  0.90870000  1.0
  H  H185  1  0.21750000  0.12460000  0.83870000  1.0
  H  H186  1  0.33820000  0.18100000  0.97000000  1.0
  H  H187  1  0.18880000  0.07490000  0.90100000  1.0
  H  H188  1  0.27210000  0.12400000  0.63760000  1.0
  H  H189  1  0.17500000  0.07050000  0.75330000  1.0
  H  H190  1  0.09330000  0.99640000  0.71830000  1.0
  H  H191  1  0.10380000  0.98620000  0.64430000  1.0
  H  H192  1  0.82490000  0.18640000  0.95900000  1.0
  H  H193  1  0.69340000  0.07990000  0.88420000  1.0
  H  H194  1  0.87290000  0.23640000  0.89930000  1.0
  H  H195  1  0.73790000  0.13040000  0.82370000  1.0
  H  H196  1  0.67660000  0.09200000  0.73660000  1.0
  H  H197  1  0.79660000  0.13820000  0.62380000  1.0
  H  H198  1  0.08200000  0.42840000  0.76950000  1.0
  H  H199  1  0.96890000  0.36140000  0.87940000  1.0
  H  H200  1  0.59720000  0.01810000  0.70250000  1.0
  H  H201  1  0.15150000  0.49750000  0.81220000  1.0
  H  H202  1  0.03950000  0.37260000  0.66990000  1.0
  H  H203  1  0.87490000  0.27050000  0.60240000  1.0
  H  H204  1  0.61920000  0.00470000  0.62650000  1.0
  H  H205  1  0.13600000  0.49760000  0.88630000  1.0
  H  H206  1  0.08400000  0.41660000  0.60560000  1.0
  H  H207  1  0.91320000  0.31840000  0.54010000  1.0
  H  H208  1  0.86700000  0.50240000  0.36100000  1.0
  H  H209  1  0.03200000  0.36700000  0.37560000  1.0
  H  H210  1  0.08160000  0.31410000  0.04640000  1.0
  H  H211  1  0.95820000  0.42030000  0.12510000  1.0
  H  H212  1  0.85750000  0.48710000  0.28740000  1.0
  H  H213  1  0.13070000  0.26160000  0.10580000  1.0
  H  H214  1  0.99600000  0.36370000  0.18370000  1.0
  H  H215  1  0.93840000  0.41300000  0.25550000  1.0
  H  H216  1  0.13790000  0.23310000  0.40870000  1.0
  H  H217  1  0.28250000  0.12460000  0.33870000  1.0
  H  H218  1  0.16180000  0.18100000  0.47000000  1.0
  H  H219  1  0.31120000  0.07490000  0.40100000  1.0
  H  H220  1  0.22790000  0.12400000  0.13760000  1.0
  H  H221  1  0.32500000  0.07050000  0.25330000  1.0
  H  H222  1  0.40670000  0.99640000  0.21830000  1.0
  H  H223  1  0.39620000  0.98620000  0.14430000  1.0
  H  H224  1  0.67510000  0.31360000  0.95900000  1.0
  H  H225  1  0.80660000  0.42010000  0.88420000  1.0
  H  H226  1  0.62710000  0.26360000  0.89930000  1.0
  H  H227  1  0.76210000  0.36960000  0.82370000  1.0
  H  H228  1  0.82340000  0.40800000  0.73660000  1.0
  H  H229  1  0.70340000  0.36180000  0.62380000  1.0
  H  H230  1  0.41800000  0.07160000  0.76950000  1.0
  H  H231  1  0.53110000  0.13860000  0.87940000  1.0
  H  H232  1  0.90280000  0.48190000  0.70250000  1.0
  H  H233  1  0.34850000  0.00250000  0.81220000  1.0
  H  H234  1  0.46050000  0.12740000  0.66990000  1.0
  H  H235  1  0.62510000  0.22950000  0.60240000  1.0
  H  H236  1  0.88080000  0.49530000  0.62650000  1.0
  H  H237  1  0.36400000  0.00240000  0.88630000  1.0
  H  H238  1  0.41600000  0.08340000  0.60560000  1.0
  H  H239  1  0.58680000  0.18160000  0.54010000  1.0
  H  H240  1  0.63300000  0.99760000  0.36100000  1.0
  H  H241  1  0.46800000  0.13300000  0.37560000  1.0
  H  H242  1  0.41840000  0.18590000  0.04640000  1.0
  H  H243  1  0.54180000  0.07970000  0.12510000  1.0
  H  H244  1  0.64250000  0.01290000  0.28740000  1.0
  H  H245  1  0.36930000  0.23840000  0.10580000  1.0
  H  H246  1  0.50400000  0.13630000  0.18370000  1.0
  H  H247  1  0.56160000  0.08700000  0.25550000  1.0
  H  H248  1  0.36210000  0.26690000  0.40870000  1.0
  H  H249  1  0.21750000  0.37540000  0.33870000  1.0
  H  H250  1  0.33820000  0.31900000  0.47000000  1.0
  H  H251  1  0.18880000  0.42510000  0.40100000  1.0
  H  H252  1  0.27210000  0.37600000  0.13760000  1.0
  H  H253  1  0.17500000  0.42950000  0.25330000  1.0
  H  H254  1  0.09330000  0.50360000  0.21830000  1.0
  H  H255  1  0.10380000  0.51380000  0.14430000  1.0
  H  H256  1  0.17510000  0.68640000  0.54100000  1.0
  H  H257  1  0.30660000  0.57990000  0.61580000  1.0
  H  H258  1  0.12710000  0.73640000  0.60070000  1.0
  H  H259  1  0.26210000  0.63040000  0.67630000  1.0
  H  H260  1  0.32340000  0.59200000  0.76340000  1.0
  H  H261  1  0.20340000  0.63820000  0.87620000  1.0
  H  H262  1  0.91800000  0.92840000  0.73050000  1.0
  H  H263  1  0.03110000  0.86140000  0.62060000  1.0
  H  H264  1  0.40280000  0.51810000  0.79750000  1.0
  H  H265  1  0.84850000  0.99750000  0.68780000  1.0
  H  H266  1  0.96050000  0.87260000  0.83010000  1.0
  H  H267  1  0.12510000  0.77050000  0.89760000  1.0
  H  H268  1  0.38080000  0.50470000  0.87350000  1.0
  H  H269  1  0.86400000  0.99760000  0.61370000  1.0
  H  H270  1  0.91600000  0.91660000  0.89440000  1.0
  H  H271  1  0.08680000  0.81840000  0.95990000  1.0
  H  H272  1  0.13300000  0.00240000  0.13900000  1.0
  H  H273  1  0.96800000  0.86700000  0.12440000  1.0
  H  H274  1  0.91840000  0.81410000  0.45360000  1.0
  H  H275  1  0.04180000  0.92030000  0.37490000  1.0
  H  H276  1  0.14250000  0.98710000  0.21260000  1.0
  H  H277  1  0.86930000  0.76160000  0.39420000  1.0
  H  H278  1  0.00400000  0.86370000  0.31630000  1.0
  H  H279  1  0.06160000  0.91300000  0.24450000  1.0
  H  H280  1  0.86210000  0.73310000  0.09130000  1.0
  H  H281  1  0.71750000  0.62460000  0.16130000  1.0
  H  H282  1  0.83820000  0.68100000  0.03000000  1.0
  H  H283  1  0.68880000  0.57490000  0.09900000  1.0
  H  H284  1  0.77210000  0.62400000  0.36240000  1.0
  H  H285  1  0.67500000  0.57050000  0.24670000  1.0
  H  H286  1  0.59330000  0.49640000  0.28170000  1.0
  H  H287  1  0.60380000  0.48620000  0.35570000  1.0
  H  H288  1  0.32490000  0.81360000  0.54100000  1.0
  H  H289  1  0.19340000  0.92010000  0.61580000  1.0
  H  H290  1  0.37290000  0.76360000  0.60070000  1.0
  H  H291  1  0.23790000  0.86960000  0.67630000  1.0
  H  H292  1  0.17660000  0.90800000  0.76340000  1.0
  H  H293  1  0.29660000  0.86180000  0.87620000  1.0
  H  H294  1  0.58200000  0.57160000  0.73050000  1.0
  H  H295  1  0.46890000  0.63860000  0.62060000  1.0
  H  H296  1  0.09720000  0.98190000  0.79750000  1.0
  H  H297  1  0.65150000  0.50250000  0.68780000  1.0
  H  H298  1  0.53950000  0.62740000  0.83010000  1.0
  H  H299  1  0.37490000  0.72950000  0.89760000  1.0
  H  H300  1  0.11920000  0.99530000  0.87350000  1.0
  H  H301  1  0.63600000  0.50240000  0.61370000  1.0
  H  H302  1  0.58400000  0.58340000  0.89440000  1.0
  H  H303  1  0.41320000  0.68160000  0.95990000  1.0
  H  H304  1  0.36700000  0.49760000  0.13900000  1.0
  H  H305  1  0.53200000  0.63300000  0.12440000  1.0
  H  H306  1  0.58160000  0.68590000  0.45360000  1.0
  H  H307  1  0.45820000  0.57970000  0.37490000  1.0
  H  H308  1  0.35750000  0.51290000  0.21260000  1.0
  H  H309  1  0.63070000  0.73840000  0.39420000  1.0
  H  H310  1  0.49600000  0.63630000  0.31630000  1.0
  H  H311  1  0.43840000  0.58700000  0.24450000  1.0
  H  H312  1  0.63790000  0.76690000  0.09130000  1.0
  H  H313  1  0.78250000  0.87540000  0.16130000  1.0
  H  H314  1  0.66180000  0.81900000  0.03000000  1.0
  H  H315  1  0.81120000  0.92510000  0.09900000  1.0
  H  H316  1  0.72790000  0.87600000  0.36240000  1.0
  H  H317  1  0.82500000  0.92950000  0.24670000  1.0
  H  H318  1  0.90670000  0.00360000  0.28170000  1.0
  H  H319  1  0.89620000  0.01380000  0.35570000  1.0
  C  C320  1  0.19290000  0.82660000  0.06900000  1.0
  C  C321  1  0.26880000  0.88760000  0.11200000  1.0
  C  C322  1  0.16510000  0.79600000  0.10490000  1.0
  C  C323  1  0.24280000  0.85740000  0.14830000  1.0
  C  C324  1  0.20890000  0.83010000  0.29350000  1.0
  C  C325  1  0.02840000  0.65910000  0.20570000  1.0
  C  C326  1  0.25770000  0.87920000  0.31660000  1.0
  C  C327  1  0.98550000  0.61300000  0.17970000  1.0
  C  C328  1  0.31530000  0.91390000  0.29370000  1.0
  C  C329  1  0.24340000  0.88650000  0.36070000  1.0
  C  C330  1  0.92750000  0.57130000  0.20000000  1.0
  C  C331  1  0.99490000  0.61070000  0.13490000  1.0
  C  C332  1  0.36250000  0.95790000  0.31360000  1.0
  C  C333  1  0.28880000  0.93100000  0.38230000  1.0
  C  C334  1  0.88560000  0.53070000  0.17430000  1.0
  C  C335  1  0.95330000  0.56920000  0.11070000  1.0
  C  C336  1  0.98670000  0.63990000  0.35680000  1.0
  C  C337  1  0.08310000  0.69860000  0.39600000  1.0
  C  C338  1  0.34870000  0.96580000  0.35890000  1.0
  C  C339  1  0.27330000  0.94150000  0.42970000  1.0
  C  C340  1  0.89580000  0.52980000  0.13060000  1.0
  C  C341  1  0.96940000  0.56600000  0.06290000  1.0
  C  C342  1  0.96220000  0.61210000  0.39500000  1.0
  C  C343  1  0.06080000  0.66980000  0.43290000  1.0
  C  C344  1  0.03920000  0.55050000  0.57690000  1.0
  C  C345  1  0.04720000  0.56320000  0.62480000  1.0
  C  C346  1  0.10020000  0.52830000  0.65150000  1.0
  C  C347  1  0.00280000  0.60840000  0.64260000  1.0
  C  C348  1  0.93500000  0.67420000  0.92510000  1.0
  C  C349  1  0.00760000  0.61340000  0.87980000  1.0
  C  C350  1  0.10590000  0.53740000  0.69510000  1.0
  C  C351  1  0.00790000  0.61890000  0.68710000  1.0
  C  C352  1  0.90800000  0.70650000  0.88970000  1.0
  C  C353  1  0.98420000  0.64720000  0.84460000  1.0
  C  C354  1  0.05940000  0.58160000  0.71390000  1.0
  C  C355  1  0.95770000  0.66930000  0.70610000  1.0
  C  C356  1  0.77470000  0.84620000  0.78000000  1.0
  C  C357  1  0.82740000  0.80070000  0.59360000  1.0
  C  C358  1  0.74300000  0.86300000  0.63450000  1.0
  C  C359  1  0.72610000  0.89620000  0.80170000  1.0
  C  C360  1  0.81150000  0.83080000  0.55680000  1.0
  C  C361  1  0.72590000  0.89210000  0.59700000  1.0
  C  C362  1  0.73550000  0.90190000  0.84620000  1.0
  C  C363  1  0.67730000  0.93330000  0.77740000  1.0
  C  C364  1  0.68970000  0.94720000  0.86730000  1.0
  C  C365  1  0.62970000  0.97790000  0.79820000  1.0
  C  C366  1  0.63630000  0.98390000  0.84190000  1.0
  C  C367  1  0.69930000  0.95600000  0.91560000  1.0
  C  C368  1  0.30710000  0.67340000  0.06900000  1.0
  C  C369  1  0.23120000  0.61240000  0.11200000  1.0
  C  C370  1  0.33490000  0.70400000  0.10490000  1.0
  C  C371  1  0.25720000  0.64260000  0.14830000  1.0
  C  C372  1  0.29110000  0.66990000  0.29350000  1.0
  C  C373  1  0.47160000  0.84090000  0.20570000  1.0
  C  C374  1  0.24230000  0.62080000  0.31660000  1.0
  C  C375  1  0.51450000  0.88700000  0.17970000  1.0
  C  C376  1  0.18470000  0.58610000  0.29370000  1.0
  C  C377  1  0.25660000  0.61350000  0.36070000  1.0
  C  C378  1  0.57250000  0.92870000  0.20000000  1.0
  C  C379  1  0.50510000  0.88930000  0.13490000  1.0
  C  C380  1  0.13750000  0.54210000  0.31360000  1.0
  C  C381  1  0.21120000  0.56900000  0.38230000  1.0
  C  C382  1  0.61440000  0.96930000  0.17430000  1.0
  C  C383  1  0.54670000  0.93080000  0.11070000  1.0
  C  C384  1  0.51330000  0.86010000  0.35680000  1.0
  C  C385  1  0.41690000  0.80140000  0.39600000  1.0
  C  C386  1  0.15130000  0.53420000  0.35890000  1.0
  C  C387  1  0.22670000  0.55850000  0.42970000  1.0
  C  C388  1  0.60420000  0.97020000  0.13060000  1.0
  C  C389  1  0.53060000  0.93400000  0.06290000  1.0
  C  C390  1  0.53780000  0.88790000  0.39500000  1.0
  C  C391  1  0.43920000  0.83020000  0.43290000  1.0
  C  C392  1  0.46080000  0.94950000  0.57690000  1.0
  C  C393  1  0.45280000  0.93680000  0.62480000  1.0
  C  C394  1  0.39980000  0.97170000  0.65150000  1.0
  C  C395  1  0.49720000  0.89160000  0.64260000  1.0
  C  C396  1  0.56500000  0.82580000  0.92510000  1.0
  C  C397  1  0.49240000  0.88660000  0.87980000  1.0
  C  C398  1  0.39410000  0.96260000  0.69510000  1.0
  C  C399  1  0.49210000  0.88110000  0.68710000  1.0
  C  C400  1  0.59200000  0.79350000  0.88970000  1.0
  C  C401  1  0.51580000  0.85280000  0.84460000  1.0
  C  C402  1  0.44060000  0.91840000  0.71390000  1.0
  C  C403  1  0.54230000  0.83070000  0.70610000  1.0
  C  C404  1  0.72530000  0.65380000  0.78000000  1.0
  C  C405  1  0.67260000  0.69930000  0.59360000  1.0
  C  C406  1  0.75700000  0.63700000  0.63450000  1.0
  C  C407  1  0.77390000  0.60380000  0.80170000  1.0
  C  C408  1  0.68850000  0.66920000  0.55680000  1.0
  C  C409  1  0.77410000  0.60790000  0.59700000  1.0
  C  C410  1  0.76450000  0.59810000  0.84620000  1.0
  C  C411  1  0.82270000  0.56670000  0.77740000  1.0
  C  C412  1  0.81030000  0.55280000  0.86730000  1.0
  C  C413  1  0.87030000  0.52210000  0.79820000  1.0
  C  C414  1  0.86370000  0.51610000  0.84190000  1.0
  C  C415  1  0.80070000  0.54400000  0.91560000  1.0
  C  C416  1  0.80710000  0.32660000  0.43100000  1.0
  C  C417  1  0.73120000  0.38760000  0.38800000  1.0
  C  C418  1  0.83490000  0.29600000  0.39510000  1.0
  C  C419  1  0.75720000  0.35740000  0.35170000  1.0
  C  C420  1  0.79110000  0.33010000  0.20650000  1.0
  C  C421  1  0.97160000  0.15910000  0.29430000  1.0
  C  C422  1  0.74230000  0.37920000  0.18340000  1.0
  C  C423  1  0.01450000  0.11300000  0.32030000  1.0
  C  C424  1  0.68470000  0.41390000  0.20630000  1.0
  C  C425  1  0.75660000  0.38650000  0.13930000  1.0
  C  C426  1  0.07250000  0.07130000  0.30000000  1.0
  C  C427  1  0.00510000  0.11070000  0.36510000  1.0
  C  C428  1  0.63750000  0.45790000  0.18640000  1.0
  C  C429  1  0.71120000  0.43100000  0.11770000  1.0
  C  C430  1  0.11440000  0.03070000  0.32570000  1.0
  C  C431  1  0.04670000  0.06920000  0.38930000  1.0
  C  C432  1  0.01330000  0.13990000  0.14320000  1.0
  C  C433  1  0.91690000  0.19860000  0.10400000  1.0
  C  C434  1  0.65130000  0.46580000  0.14110000  1.0
  C  C435  1  0.72670000  0.44150000  0.07030000  1.0
  C  C436  1  0.10420000  0.02980000  0.36940000  1.0
  C  C437  1  0.03060000  0.06600000  0.43710000  1.0
  C  C438  1  0.03780000  0.11210000  0.10500000  1.0
  C  C439  1  0.93920000  0.16980000  0.06710000  1.0
  C  C440  1  0.96080000  0.05050000  0.92310000  1.0
  C  C441  1  0.95280000  0.06320000  0.87520000  1.0
  C  C442  1  0.89980000  0.02830000  0.84850000  1.0
  C  C443  1  0.99720000  0.10840000  0.85740000  1.0
  C  C444  1  0.06500000  0.17420000  0.57490000  1.0
  C  C445  1  0.99240000  0.11340000  0.62020000  1.0
  C  C446  1  0.89410000  0.03740000  0.80490000  1.0
  C  C447  1  0.99210000  0.11890000  0.81290000  1.0
  C  C448  1  0.09200000  0.20650000  0.61030000  1.0
  C  C449  1  0.01580000  0.14720000  0.65540000  1.0
  C  C450  1  0.94060000  0.08160000  0.78610000  1.0
  C  C451  1  0.04230000  0.16930000  0.79390000  1.0
  C  C452  1  0.22530000  0.34620000  0.72000000  1.0
  C  C453  1  0.17260000  0.30070000  0.90640000  1.0
  C  C454  1  0.25700000  0.36300000  0.86550000  1.0
  C  C455  1  0.27390000  0.39620000  0.69830000  1.0
  C  C456  1  0.18850000  0.33080000  0.94320000  1.0
  C  C457  1  0.27410000  0.39210000  0.90300000  1.0
  C  C458  1  0.26450000  0.40190000  0.65380000  1.0
  C  C459  1  0.32270000  0.43330000  0.72260000  1.0
  C  C460  1  0.31030000  0.44720000  0.63270000  1.0
  C  C461  1  0.37030000  0.47790000  0.70180000  1.0
  C  C462  1  0.36370000  0.48390000  0.65810000  1.0
  C  C463  1  0.30070000  0.45600000  0.58440000  1.0
  C  C464  1  0.69290000  0.17340000  0.43100000  1.0
  C  C465  1  0.76880000  0.11240000  0.38800000  1.0
  C  C466  1  0.66510000  0.20400000  0.39510000  1.0
  C  C467  1  0.74280000  0.14260000  0.35170000  1.0
  C  C468  1  0.70890000  0.16990000  0.20650000  1.0
  C  C469  1  0.52840000  0.34090000  0.29430000  1.0
  C  C470  1  0.75770000  0.12080000  0.18340000  1.0
  C  C471  1  0.48550000  0.38700000  0.32030000  1.0
  C  C472  1  0.81530000  0.08610000  0.20630000  1.0
  C  C473  1  0.74340000  0.11350000  0.13930000  1.0
  C  C474  1  0.42750000  0.42870000  0.30000000  1.0
  C  C475  1  0.49490000  0.38930000  0.36510000  1.0
  C  C476  1  0.86250000  0.04210000  0.18640000  1.0
  C  C477  1  0.78880000  0.06900000  0.11770000  1.0
  C  C478  1  0.38560000  0.46930000  0.32570000  1.0
  C  C479  1  0.45330000  0.43080000  0.38930000  1.0
  C  C480  1  0.48670000  0.36010000  0.14320000  1.0
  C  C481  1  0.58310000  0.30140000  0.10400000  1.0
  C  C482  1  0.84870000  0.03420000  0.14110000  1.0
  C  C483  1  0.77330000  0.05850000  0.07030000  1.0
  C  C484  1  0.39580000  0.47020000  0.36940000  1.0
  C  C485  1  0.46940000  0.43400000  0.43710000  1.0
  C  C486  1  0.46220000  0.38790000  0.10500000  1.0
  C  C487  1  0.56080000  0.33020000  0.06710000  1.0
  C  C488  1  0.53920000  0.44950000  0.92310000  1.0
  C  C489  1  0.54720000  0.43680000  0.87520000  1.0
  C  C490  1  0.60020000  0.47170000  0.84850000  1.0
  C  C491  1  0.50280000  0.39160000  0.85740000  1.0
  C  C492  1  0.43500000  0.32580000  0.57490000  1.0
  C  C493  1  0.50760000  0.38660000  0.62020000  1.0
  C  C494  1  0.60590000  0.46260000  0.80490000  1.0
  C  C495  1  0.50790000  0.38110000  0.81290000  1.0
  C  C496  1  0.40800000  0.29350000  0.61030000  1.0
  C  C497  1  0.48420000  0.35280000  0.65540000  1.0
  C  C498  1  0.55940000  0.41840000  0.78610000  1.0
  C  C499  1  0.45770000  0.33070000  0.79390000  1.0
  C  C500  1  0.27470000  0.15380000  0.72000000  1.0
  C  C501  1  0.32740000  0.19930000  0.90640000  1.0
  C  C502  1  0.24300000  0.13700000  0.86550000  1.0
  C  C503  1  0.22610000  0.10380000  0.69830000  1.0
  C  C504  1  0.31150000  0.16920000  0.94320000  1.0
  C  C505  1  0.22590000  0.10790000  0.90300000  1.0
  C  C506  1  0.23550000  0.09810000  0.65380000  1.0
  C  C507  1  0.17730000  0.06670000  0.72260000  1.0
  C  C508  1  0.18970000  0.05280000  0.63270000  1.0
  C  C509  1  0.12970000  0.02210000  0.70180000  1.0
  C  C510  1  0.13630000  0.01610000  0.65810000  1.0
  C  C511  1  0.19930000  0.04400000  0.58440000  1.0
  C  C512  1  0.80710000  0.17340000  0.93100000  1.0
  C  C513  1  0.73120000  0.11240000  0.88800000  1.0
  C  C514  1  0.83490000  0.20400000  0.89510000  1.0
  C  C515  1  0.75720000  0.14260000  0.85170000  1.0
  C  C516  1  0.79110000  0.16990000  0.70650000  1.0
  C  C517  1  0.97160000  0.34090000  0.79430000  1.0
  C  C518  1  0.74230000  0.12080000  0.68340000  1.0
  C  C519  1  0.01450000  0.38700000  0.82030000  1.0
  C  C520  1  0.68470000  0.08610000  0.70630000  1.0
  C  C521  1  0.75660000  0.11350000  0.63930000  1.0
  C  C522  1  0.07250000  0.42870000  0.80000000  1.0
  C  C523  1  0.00510000  0.38930000  0.86510000  1.0
  C  C524  1  0.63750000  0.04210000  0.68640000  1.0
  C  C525  1  0.71120000  0.06900000  0.61770000  1.0
  C  C526  1  0.11440000  0.46930000  0.82570000  1.0
  C  C527  1  0.04670000  0.43080000  0.88930000  1.0
  C  C528  1  0.01330000  0.36010000  0.64320000  1.0
  C  C529  1  0.91690000  0.30140000  0.60400000  1.0
  C  C530  1  0.65130000  0.03420000  0.64110000  1.0
  C  C531  1  0.72670000  0.05850000  0.57030000  1.0
  C  C532  1  0.10420000  0.47020000  0.86940000  1.0
  C  C533  1  0.03060000  0.43400000  0.93710000  1.0
  C  C534  1  0.03780000  0.38790000  0.60500000  1.0
  C  C535  1  0.93920000  0.33020000  0.56710000  1.0
  C  C536  1  0.96080000  0.44950000  0.42310000  1.0
  C  C537  1  0.95280000  0.43680000  0.37520000  1.0
  C  C538  1  0.89980000  0.47170000  0.34850000  1.0
  C  C539  1  0.99720000  0.39160000  0.35740000  1.0
  C  C540  1  0.06500000  0.32580000  0.07490000  1.0
  C  C541  1  0.99240000  0.38660000  0.12020000  1.0
  C  C542  1  0.89410000  0.46260000  0.30490000  1.0
  C  C543  1  0.99210000  0.38110000  0.31290000  1.0
  C  C544  1  0.09200000  0.29350000  0.11030000  1.0
  C  C545  1  0.01580000  0.35280000  0.15540000  1.0
  C  C546  1  0.94060000  0.41840000  0.28610000  1.0
  C  C547  1  0.04230000  0.33070000  0.29390000  1.0
  C  C548  1  0.22530000  0.15380000  0.22000000  1.0
  C  C549  1  0.17260000  0.19930000  0.40640000  1.0
  C  C550  1  0.25700000  0.13700000  0.36550000  1.0
  C  C551  1  0.27390000  0.10380000  0.19830000  1.0
  C  C552  1  0.18850000  0.16920000  0.44320000  1.0
  C  C553  1  0.27410000  0.10790000  0.40300000  1.0
  C  C554  1  0.26450000  0.09810000  0.15380000  1.0
  C  C555  1  0.32270000  0.06670000  0.22260000  1.0
  C  C556  1  0.31030000  0.05280000  0.13270000  1.0
  C  C557  1  0.37030000  0.02210000  0.20180000  1.0
  C  C558  1  0.36370000  0.01610000  0.15810000  1.0
  C  C559  1  0.30070000  0.04400000  0.08440000  1.0
  C  C560  1  0.69290000  0.32660000  0.93100000  1.0
  C  C561  1  0.76880000  0.38760000  0.88800000  1.0
  C  C562  1  0.66510000  0.29600000  0.89510000  1.0
  C  C563  1  0.74280000  0.35740000  0.85170000  1.0
  C  C564  1  0.70890000  0.33010000  0.70650000  1.0
  C  C565  1  0.52840000  0.15910000  0.79430000  1.0
  C  C566  1  0.75770000  0.37920000  0.68340000  1.0
  C  C567  1  0.48550000  0.11300000  0.82030000  1.0
  C  C568  1  0.81530000  0.41390000  0.70630000  1.0
  C  C569  1  0.74340000  0.38650000  0.63930000  1.0
  C  C570  1  0.42750000  0.07130000  0.80000000  1.0
  C  C571  1  0.49490000  0.11070000  0.86510000  1.0
  C  C572  1  0.86250000  0.45790000  0.68640000  1.0
  C  C573  1  0.78880000  0.43100000  0.61770000  1.0
  C  C574  1  0.38560000  0.03070000  0.82570000  1.0
  C  C575  1  0.45330000  0.06920000  0.88930000  1.0
  C  C576  1  0.48670000  0.13990000  0.64320000  1.0
  C  C577  1  0.58310000  0.19860000  0.60400000  1.0
  C  C578  1  0.84870000  0.46580000  0.64110000  1.0
  C  C579  1  0.77330000  0.44150000  0.57030000  1.0
  C  C580  1  0.39580000  0.02980000  0.86940000  1.0
  C  C581  1  0.46940000  0.06600000  0.93710000  1.0
  C  C582  1  0.46220000  0.11210000  0.60500000  1.0
  C  C583  1  0.56080000  0.16980000  0.56710000  1.0
  C  C584  1  0.53920000  0.05050000  0.42310000  1.0
  C  C585  1  0.54720000  0.06320000  0.37520000  1.0
  C  C586  1  0.60020000  0.02830000  0.34850000  1.0
  C  C587  1  0.50280000  0.10840000  0.35740000  1.0
  C  C588  1  0.43500000  0.17420000  0.07490000  1.0
  C  C589  1  0.50760000  0.11340000  0.12020000  1.0
  C  C590  1  0.60590000  0.03740000  0.30490000  1.0
  C  C591  1  0.50790000  0.11890000  0.31290000  1.0
  C  C592  1  0.40800000  0.20650000  0.11030000  1.0
  C  C593  1  0.48420000  0.14720000  0.15540000  1.0
  C  C594  1  0.55940000  0.08160000  0.28610000  1.0
  C  C595  1  0.45770000  0.16930000  0.29390000  1.0
  C  C596  1  0.27470000  0.34620000  0.22000000  1.0
  C  C597  1  0.32740000  0.30070000  0.40640000  1.0
  C  C598  1  0.24300000  0.36300000  0.36550000  1.0
  C  C599  1  0.22610000  0.39620000  0.19830000  1.0
  C  C600  1  0.31150000  0.33080000  0.44320000  1.0
  C  C601  1  0.22590000  0.39210000  0.40300000  1.0
  C  C602  1  0.23550000  0.40190000  0.15380000  1.0
  C  C603  1  0.17730000  0.43330000  0.22260000  1.0
  C  C604  1  0.18970000  0.44720000  0.13270000  1.0
  C  C605  1  0.12970000  0.47790000  0.20180000  1.0
  C  C606  1  0.13630000  0.48390000  0.15810000  1.0
  C  C607  1  0.19930000  0.45600000  0.08440000  1.0
  C  C608  1  0.19290000  0.67340000  0.56900000  1.0
  C  C609  1  0.26880000  0.61240000  0.61200000  1.0
  C  C610  1  0.16510000  0.70400000  0.60490000  1.0
  C  C611  1  0.24280000  0.64260000  0.64830000  1.0
  C  C612  1  0.20890000  0.66990000  0.79350000  1.0
  C  C613  1  0.02840000  0.84090000  0.70570000  1.0
  C  C614  1  0.25770000  0.62080000  0.81660000  1.0
  C  C615  1  0.98550000  0.88700000  0.67970000  1.0
  C  C616  1  0.31530000  0.58610000  0.79370000  1.0
  C  C617  1  0.24340000  0.61350000  0.86070000  1.0
  C  C618  1  0.92750000  0.92870000  0.70000000  1.0
  C  C619  1  0.99490000  0.88930000  0.63490000  1.0
  C  C620  1  0.36250000  0.54210000  0.81360000  1.0
  C  C621  1  0.28880000  0.56900000  0.88230000  1.0
  C  C622  1  0.88560000  0.96930000  0.67430000  1.0
  C  C623  1  0.95330000  0.93080000  0.61070000  1.0
  C  C624  1  0.98670000  0.86010000  0.85680000  1.0
  C  C625  1  0.08310000  0.80140000  0.89600000  1.0
  C  C626  1  0.34870000  0.53420000  0.85890000  1.0
  C  C627  1  0.27330000  0.55850000  0.92970000  1.0
  C  C628  1  0.89580000  0.97020000  0.63060000  1.0
  C  C629  1  0.96940000  0.93400000  0.56290000  1.0
  C  C630  1  0.96220000  0.88790000  0.89500000  1.0
  C  C631  1  0.06080000  0.83020000  0.93290000  1.0
  C  C632  1  0.03920000  0.94950000  0.07690000  1.0
  C  C633  1  0.04720000  0.93680000  0.12480000  1.0
  C  C634  1  0.10020000  0.97170000  0.15150000  1.0
  C  C635  1  0.00280000  0.89160000  0.14260000  1.0
  C  C636  1  0.93500000  0.82580000  0.42510000  1.0
  C  C637  1  0.00760000  0.88660000  0.37980000  1.0
  C  C638  1  0.10590000  0.96260000  0.19510000  1.0
  C  C639  1  0.00790000  0.88110000  0.18710000  1.0
  C  C640  1  0.90800000  0.79350000  0.38970000  1.0
  C  C641  1  0.98420000  0.85280000  0.34460000  1.0
  C  C642  1  0.05940000  0.91840000  0.21390000  1.0
  C  C643  1  0.95770000  0.83070000  0.20610000  1.0
  C  C644  1  0.77470000  0.65380000  0.28000000  1.0
  C  C645  1  0.82740000  0.69930000  0.09360000  1.0
  C  C646  1  0.74300000  0.63700000  0.13450000  1.0
  C  C647  1  0.72610000  0.60380000  0.30170000  1.0
  C  C648  1  0.81150000  0.66920000  0.05680000  1.0
  C  C649  1  0.72590000  0.60790000  0.09700000  1.0
  C  C650  1  0.73550000  0.59810000  0.34620000  1.0
  C  C651  1  0.67730000  0.56670000  0.27740000  1.0
  C  C652  1  0.68970000  0.55280000  0.36730000  1.0
  C  C653  1  0.62970000  0.52210000  0.29820000  1.0
  C  C654  1  0.63630000  0.51610000  0.34190000  1.0
  C  C655  1  0.69930000  0.54400000  0.41560000  1.0
  C  C656  1  0.30710000  0.82660000  0.56900000  1.0
  C  C657  1  0.23120000  0.88760000  0.61200000  1.0
  C  C658  1  0.33490000  0.79600000  0.60490000  1.0
  C  C659  1  0.25720000  0.85740000  0.64830000  1.0
  C  C660  1  0.29110000  0.83010000  0.79350000  1.0
  C  C661  1  0.47160000  0.65910000  0.70570000  1.0
  C  C662  1  0.24230000  0.87920000  0.81660000  1.0
  C  C663  1  0.51450000  0.61300000  0.67970000  1.0
  C  C664  1  0.18470000  0.91390000  0.79370000  1.0
  C  C665  1  0.25660000  0.88650000  0.86070000  1.0
  C  C666  1  0.57250000  0.57130000  0.70000000  1.0
  C  C667  1  0.50510000  0.61070000  0.63490000  1.0
  C  C668  1  0.13750000  0.95790000  0.81360000  1.0
  C  C669  1  0.21120000  0.93100000  0.88230000  1.0
  C  C670  1  0.61440000  0.53070000  0.67430000  1.0
  C  C671  1  0.54670000  0.56920000  0.61070000  1.0
  C  C672  1  0.51330000  0.63990000  0.85680000  1.0
  C  C673  1  0.41690000  0.69860000  0.89600000  1.0
  C  C674  1  0.15130000  0.96580000  0.85890000  1.0
  C  C675  1  0.22670000  0.94150000  0.92970000  1.0
  C  C676  1  0.60420000  0.52980000  0.63060000  1.0
  C  C677  1  0.53060000  0.56600000  0.56290000  1.0
  C  C678  1  0.53780000  0.61210000  0.89500000  1.0
  C  C679  1  0.43920000  0.66980000  0.93290000  1.0
  C  C680  1  0.46080000  0.55050000  0.07690000  1.0
  C  C681  1  0.45280000  0.56320000  0.12480000  1.0
  C  C682  1  0.39980000  0.52830000  0.15150000  1.0
  C  C683  1  0.49720000  0.60840000  0.14260000  1.0
  C  C684  1  0.56500000  0.67420000  0.42510000  1.0
  C  C685  1  0.49240000  0.61340000  0.37980000  1.0
  C  C686  1  0.39410000  0.53740000  0.19510000  1.0
  C  C687  1  0.49210000  0.61890000  0.18710000  1.0
  C  C688  1  0.59200000  0.70650000  0.38970000  1.0
  C  C689  1  0.51580000  0.64720000  0.34460000  1.0
  C  C690  1  0.44060000  0.58160000  0.21390000  1.0
  C  C691  1  0.54230000  0.66930000  0.20610000  1.0
  C  C692  1  0.72530000  0.84620000  0.28000000  1.0
  C  C693  1  0.67260000  0.80070000  0.09360000  1.0
  C  C694  1  0.75700000  0.86300000  0.13450000  1.0
  C  C695  1  0.77390000  0.89620000  0.30170000  1.0
  C  C696  1  0.68850000  0.83080000  0.05680000  1.0
  C  C697  1  0.77410000  0.89210000  0.09700000  1.0
  C  C698  1  0.76450000  0.90190000  0.34620000  1.0
  C  C699  1  0.82270000  0.93330000  0.27740000  1.0
  C  C700  1  0.81030000  0.94720000  0.36730000  1.0
  C  C701  1  0.87030000  0.97790000  0.29820000  1.0
  C  C702  1  0.86370000  0.98390000  0.34190000  1.0
  C  C703  1  0.80070000  0.95600000  0.41560000  1.0
  N  N704  1  0.24320000  0.87320000  0.07180000  1.0
  N  N705  1  0.18960000  0.81030000  0.14440000  1.0
  N  N706  1  0.04530000  0.68330000  0.35630000  1.0
  N  N707  1  0.00350000  0.62570000  0.43230000  1.0
  N  N708  1  0.98320000  0.62720000  0.91990000  1.0
  N  N709  1  0.93640000  0.69320000  0.84890000  1.0
  N  N710  1  0.79710000  0.81610000  0.63260000  1.0
  N  N711  1  0.75760000  0.87750000  0.55810000  1.0
  N  N712  1  0.25680000  0.62680000  0.07180000  1.0
  N  N713  1  0.31040000  0.68970000  0.14440000  1.0
  N  N714  1  0.45470000  0.81670000  0.35630000  1.0
  N  N715  1  0.49650000  0.87430000  0.43230000  1.0
  N  N716  1  0.51680000  0.87280000  0.91990000  1.0
  N  N717  1  0.56360000  0.80680000  0.84890000  1.0
  N  N718  1  0.70290000  0.68390000  0.63260000  1.0
  N  N719  1  0.74240000  0.62250000  0.55810000  1.0
  N  N720  1  0.75680000  0.37320000  0.42820000  1.0
  N  N721  1  0.81040000  0.31030000  0.35560000  1.0
  N  N722  1  0.95470000  0.18330000  0.14370000  1.0
  N  N723  1  0.99650000  0.12570000  0.06770000  1.0
  N  N724  1  0.01680000  0.12720000  0.58010000  1.0
  N  N725  1  0.06360000  0.19320000  0.65110000  1.0
  N  N726  1  0.20290000  0.31610000  0.86740000  1.0
  N  N727  1  0.24240000  0.37750000  0.94190000  1.0
  N  N728  1  0.74320000  0.12680000  0.42820000  1.0
  N  N729  1  0.68960000  0.18970000  0.35560000  1.0
  N  N730  1  0.54530000  0.31670000  0.14370000  1.0
  N  N731  1  0.50350000  0.37430000  0.06770000  1.0
  N  N732  1  0.48320000  0.37280000  0.58010000  1.0
  N  N733  1  0.43640000  0.30680000  0.65110000  1.0
  N  N734  1  0.29710000  0.18390000  0.86740000  1.0
  N  N735  1  0.25760000  0.12250000  0.94190000  1.0
  N  N736  1  0.75680000  0.12680000  0.92820000  1.0
  N  N737  1  0.81040000  0.18970000  0.85560000  1.0
  N  N738  1  0.95470000  0.31670000  0.64370000  1.0
  N  N739  1  0.99650000  0.37430000  0.56770000  1.0
  N  N740  1  0.01680000  0.37280000  0.08010000  1.0
  N  N741  1  0.06360000  0.30680000  0.15110000  1.0
  N  N742  1  0.20290000  0.18390000  0.36740000  1.0
  N  N743  1  0.24240000  0.12250000  0.44190000  1.0
  N  N744  1  0.74320000  0.37320000  0.92820000  1.0
  N  N745  1  0.68960000  0.31030000  0.85560000  1.0
  N  N746  1  0.54530000  0.18330000  0.64370000  1.0
  N  N747  1  0.50350000  0.12570000  0.56770000  1.0
  N  N748  1  0.48320000  0.12720000  0.08010000  1.0
  N  N749  1  0.43640000  0.19320000  0.15110000  1.0
  N  N750  1  0.29710000  0.31610000  0.36740000  1.0
  N  N751  1  0.25760000  0.37750000  0.44190000  1.0
  N  N752  1  0.24320000  0.62680000  0.57180000  1.0
  N  N753  1  0.18960000  0.68970000  0.64440000  1.0
  N  N754  1  0.04530000  0.81670000  0.85630000  1.0
  N  N755  1  0.00350000  0.87430000  0.93230000  1.0
  N  N756  1  0.98320000  0.87280000  0.41990000  1.0
  N  N757  1  0.93640000  0.80680000  0.34890000  1.0
  N  N758  1  0.79710000  0.68390000  0.13260000  1.0
  N  N759  1  0.75760000  0.62250000  0.05810000  1.0
  N  N760  1  0.25680000  0.87320000  0.57180000  1.0
  N  N761  1  0.31040000  0.81030000  0.64440000  1.0
  N  N762  1  0.45470000  0.68330000  0.85630000  1.0
  N  N763  1  0.49650000  0.62570000  0.93230000  1.0
  N  N764  1  0.51680000  0.62720000  0.41990000  1.0
  N  N765  1  0.56360000  0.69320000  0.34890000  1.0
  N  N766  1  0.70290000  0.81610000  0.13260000  1.0
  N  N767  1  0.74240000  0.87750000  0.05810000  1.0
  O  O768  1  0.28280000  0.90960000  0.94980000  1.0
  O  O769  1  0.34610000  0.00420000  0.06810000  1.0
  O  O770  1  0.22390000  0.82650000  0.25340000  1.0
  O  O771  1  0.07150000  0.69500000  0.18400000  1.0
  O  O772  1  0.15950000  0.79750000  0.31610000  1.0
  O  O773  1  0.01900000  0.65880000  0.24620000  1.0
  O  O774  1  0.99120000  0.58410000  0.55300000  1.0
  O  O775  1  0.31530000  0.98390000  0.44580000  1.0
  O  O776  1  0.02490000  0.60230000  0.04450000  1.0
  O  O777  1  0.92900000  0.52910000  0.03990000  1.0
  O  O778  1  0.07620000  0.50690000  0.56250000  1.0
  O  O779  1  0.96640000  0.67630000  0.74700000  1.0
  O  O780  1  0.91580000  0.70020000  0.68010000  1.0
  O  O781  1  0.81370000  0.81140000  0.80570000  1.0
  O  O782  1  0.77320000  0.84420000  0.73940000  1.0
  O  O783  1  0.75450000  0.92000000  0.43700000  1.0
  O  O784  1  0.21720000  0.59040000  0.94980000  1.0
  O  O785  1  0.15390000  0.49580000  0.06810000  1.0
  O  O786  1  0.27610000  0.67350000  0.25340000  1.0
  O  O787  1  0.42850000  0.80500000  0.18400000  1.0
  O  O788  1  0.34050000  0.70250000  0.31610000  1.0
  O  O789  1  0.48100000  0.84120000  0.24620000  1.0
  O  O790  1  0.50880000  0.91590000  0.55300000  1.0
  O  O791  1  0.18470000  0.51610000  0.44580000  1.0
  O  O792  1  0.47510000  0.89770000  0.04450000  1.0
  O  O793  1  0.57100000  0.97090000  0.03990000  1.0
  O  O794  1  0.42380000  0.99310000  0.56250000  1.0
  O  O795  1  0.53360000  0.82370000  0.74700000  1.0
  O  O796  1  0.58420000  0.79980000  0.68010000  1.0
  O  O797  1  0.68630000  0.68860000  0.80570000  1.0
  O  O798  1  0.72680000  0.65580000  0.73940000  1.0
  O  O799  1  0.74550000  0.58000000  0.43700000  1.0
  O  O800  1  0.71720000  0.40960000  0.55020000  1.0
  O  O801  1  0.65390000  0.50420000  0.43190000  1.0
  O  O802  1  0.77610000  0.32650000  0.24660000  1.0
  O  O803  1  0.92850000  0.19500000  0.31600000  1.0
  O  O804  1  0.84050000  0.29750000  0.18390000  1.0
  O  O805  1  0.98100000  0.15880000  0.25380000  1.0
  O  O806  1  0.00880000  0.08410000  0.94700000  1.0
  O  O807  1  0.68470000  0.48390000  0.05420000  1.0
  O  O808  1  0.97510000  0.10230000  0.45550000  1.0
  O  O809  1  0.07100000  0.02910000  0.46010000  1.0
  O  O810  1  0.92380000  0.00690000  0.93750000  1.0
  O  O811  1  0.03360000  0.17630000  0.75300000  1.0
  O  O812  1  0.08420000  0.20020000  0.81990000  1.0
  O  O813  1  0.18630000  0.31140000  0.69430000  1.0
  O  O814  1  0.22680000  0.34420000  0.76060000  1.0
  O  O815  1  0.24550000  0.42000000  0.06300000  1.0
  O  O816  1  0.78280000  0.09040000  0.55020000  1.0
  O  O817  1  0.84610000  0.99580000  0.43190000  1.0
  O  O818  1  0.72390000  0.17350000  0.24660000  1.0
  O  O819  1  0.57150000  0.30500000  0.31600000  1.0
  O  O820  1  0.65950000  0.20250000  0.18390000  1.0
  O  O821  1  0.51900000  0.34120000  0.25380000  1.0
  O  O822  1  0.49120000  0.41590000  0.94700000  1.0
  O  O823  1  0.81530000  0.01610000  0.05420000  1.0
  O  O824  1  0.52490000  0.39770000  0.45550000  1.0
  O  O825  1  0.42900000  0.47090000  0.46010000  1.0
  O  O826  1  0.57620000  0.49310000  0.93750000  1.0
  O  O827  1  0.46640000  0.32370000  0.75300000  1.0
  O  O828  1  0.41580000  0.29980000  0.81990000  1.0
  O  O829  1  0.31370000  0.18860000  0.69430000  1.0
  O  O830  1  0.27320000  0.15580000  0.76060000  1.0
  O  O831  1  0.25450000  0.08000000  0.06300000  1.0
  O  O832  1  0.71720000  0.09040000  0.05020000  1.0
  O  O833  1  0.65390000  0.99580000  0.93190000  1.0
  O  O834  1  0.77610000  0.17350000  0.74660000  1.0
  O  O835  1  0.92850000  0.30500000  0.81600000  1.0
  O  O836  1  0.84050000  0.20250000  0.68390000  1.0
  O  O837  1  0.98100000  0.34120000  0.75380000  1.0
  O  O838  1  0.00880000  0.41590000  0.44700000  1.0
  O  O839  1  0.68470000  0.01610000  0.55420000  1.0
  O  O840  1  0.97510000  0.39770000  0.95550000  1.0
  O  O841  1  0.07100000  0.47090000  0.96010000  1.0
  O  O842  1  0.92380000  0.49310000  0.43750000  1.0
  O  O843  1  0.03360000  0.32370000  0.25300000  1.0
  O  O844  1  0.08420000  0.29980000  0.31990000  1.0
  O  O845  1  0.18630000  0.18860000  0.19430000  1.0
  O  O846  1  0.22680000  0.15580000  0.26060000  1.0
  O  O847  1  0.24550000  0.08000000  0.56300000  1.0
  O  O848  1  0.78280000  0.40960000  0.05020000  1.0
  O  O849  1  0.84610000  0.50420000  0.93190000  1.0
  O  O850  1  0.72390000  0.32650000  0.74660000  1.0
  O  O851  1  0.57150000  0.19500000  0.81600000  1.0
  O  O852  1  0.65950000  0.29750000  0.68390000  1.0
  O  O853  1  0.51900000  0.15880000  0.75380000  1.0
  O  O854  1  0.49120000  0.08410000  0.44700000  1.0
  O  O855  1  0.81530000  0.48390000  0.55420000  1.0
  O  O856  1  0.52490000  0.10230000  0.95550000  1.0
  O  O857  1  0.42900000  0.02910000  0.96010000  1.0
  O  O858  1  0.57620000  0.00690000  0.43750000  1.0
  O  O859  1  0.46640000  0.17630000  0.25300000  1.0
  O  O860  1  0.41580000  0.20020000  0.31990000  1.0
  O  O861  1  0.31370000  0.31140000  0.19430000  1.0
  O  O862  1  0.27320000  0.34420000  0.26060000  1.0
  O  O863  1  0.25450000  0.42000000  0.56300000  1.0
  O  O864  1  0.28280000  0.59040000  0.44980000  1.0
  O  O865  1  0.34610000  0.49580000  0.56810000  1.0
  O  O866  1  0.22390000  0.67350000  0.75340000  1.0
  O  O867  1  0.07150000  0.80500000  0.68400000  1.0
  O  O868  1  0.15950000  0.70250000  0.81610000  1.0
  O  O869  1  0.01900000  0.84120000  0.74620000  1.0
  O  O870  1  0.99120000  0.91590000  0.05300000  1.0
  O  O871  1  0.31530000  0.51610000  0.94580000  1.0
  O  O872  1  0.02490000  0.89770000  0.54450000  1.0
  O  O873  1  0.92900000  0.97090000  0.53990000  1.0
  O  O874  1  0.07620000  0.99310000  0.06250000  1.0
  O  O875  1  0.96640000  0.82370000  0.24700000  1.0
  O  O876  1  0.91580000  0.79980000  0.18010000  1.0
  O  O877  1  0.81370000  0.68860000  0.30570000  1.0
  O  O878  1  0.77320000  0.65580000  0.23940000  1.0
  O  O879  1  0.75450000  0.58000000  0.93700000  1.0
  O  O880  1  0.21720000  0.90960000  0.44980000  1.0
  O  O881  1  0.15390000  0.00420000  0.56810000  1.0
  O  O882  1  0.27610000  0.82650000  0.75340000  1.0
  O  O883  1  0.42850000  0.69500000  0.68400000  1.0
  O  O884  1  0.34050000  0.79750000  0.81610000  1.0
  O  O885  1  0.48100000  0.65880000  0.74620000  1.0
  O  O886  1  0.50880000  0.58410000  0.05300000  1.0
  O  O887  1  0.18470000  0.98390000  0.94580000  1.0
  O  O888  1  0.47510000  0.60230000  0.54450000  1.0
  O  O889  1  0.57100000  0.52910000  0.53990000  1.0
  O  O890  1  0.42380000  0.50690000  0.06250000  1.0
  O  O891  1  0.53360000  0.67630000  0.24700000  1.0
  O  O892  1  0.58420000  0.70020000  0.18010000  1.0
  O  O893  1  0.68630000  0.81140000  0.30570000  1.0
  O  O894  1  0.72680000  0.84420000  0.23940000  1.0
  O  O895  1  0.74550000  0.92000000  0.93700000  1.0
