# generated using pymatgen
data_Zn2Mo6H9C16N3O16
_symmetry_space_group_name_H-M   'P 1'
_cell_length_a   54.43800000
_cell_length_b   14.50030000
_cell_length_c   39.58170000
_cell_angle_alpha   90.00000000
_cell_angle_beta   128.01000000
_cell_angle_gamma   90.00000000
_symmetry_Int_Tables_number   1
_chemical_formula_structural   Zn2Mo6H9C16N3O16
_chemical_formula_sum   'Zn32 Mo96 H144 C256 N48 O256'
_cell_volume   24617.64500475
_cell_formula_units_Z   16
loop_
 _symmetry_equiv_pos_site_id
 _symmetry_equiv_pos_as_xyz
  1  'x, y, z'
loop_
 _atom_site_type_symbol
 _atom_site_label
 _atom_site_symmetry_multiplicity
 _atom_site_fract_x
 _atom_site_fract_y
 _atom_site_fract_z
 _atom_site_occupancy
  Zn  Zn0  1  0.12910000  0.86106000  0.48523000  1.0
  Zn  Zn1  1  0.22567000  0.55099000  0.59381000  1.0
  Zn  Zn2  1  0.09930000  0.44710000  0.45615000  1.0
  Zn  Zn3  1  0.12291000  0.65713000  0.60630000  1.0
  Zn  Zn4  1  0.62910000  0.36106000  0.48523000  1.0
  Zn  Zn5  1  0.72567000  0.05099000  0.59381000  1.0
  Zn  Zn6  1  0.59930000  0.94710000  0.45615000  1.0
  Zn  Zn7  1  0.62291000  0.15713000  0.60630000  1.0
  Zn  Zn8  1  0.12910000  0.13894000  0.98523000  1.0
  Zn  Zn9  1  0.22567000  0.44901000  0.09381000  1.0
  Zn  Zn10  1  0.09930000  0.55290000  0.95615000  1.0
  Zn  Zn11  1  0.12291000  0.34287000  0.10630000  1.0
  Zn  Zn12  1  0.62910000  0.63894000  0.98523000  1.0
  Zn  Zn13  1  0.72567000  0.94901000  0.09381000  1.0
  Zn  Zn14  1  0.59930000  0.05290000  0.95615000  1.0
  Zn  Zn15  1  0.62291000  0.84287000  0.10630000  1.0
  Zn  Zn16  1  0.87090000  0.86106000  0.01477000  1.0
  Zn  Zn17  1  0.77433000  0.55099000  0.90619000  1.0
  Zn  Zn18  1  0.90070000  0.44710000  0.04385000  1.0
  Zn  Zn19  1  0.87709000  0.65713000  0.89370000  1.0
  Zn  Zn20  1  0.37090000  0.36106000  0.01477000  1.0
  Zn  Zn21  1  0.27433000  0.05099000  0.90619000  1.0
  Zn  Zn22  1  0.40070000  0.94710000  0.04385000  1.0
  Zn  Zn23  1  0.37709000  0.15713000  0.89370000  1.0
  Zn  Zn24  1  0.87090000  0.13894000  0.51477000  1.0
  Zn  Zn25  1  0.77433000  0.44901000  0.40619000  1.0
  Zn  Zn26  1  0.90070000  0.55290000  0.54385000  1.0
  Zn  Zn27  1  0.87709000  0.34287000  0.39370000  1.0
  Zn  Zn28  1  0.37090000  0.63894000  0.51477000  1.0
  Zn  Zn29  1  0.27433000  0.94901000  0.40619000  1.0
  Zn  Zn30  1  0.40070000  0.05290000  0.54385000  1.0
  Zn  Zn31  1  0.37709000  0.84287000  0.39370000  1.0
  Mo  Mo32  1  0.17362000  0.48442000  0.48721000  1.0
  Mo  Mo33  1  0.19348000  0.71286000  0.50748000  1.0
  Mo  Mo34  1  0.15235000  0.85132000  0.59034000  1.0
  Mo  Mo35  1  0.07250000  0.68445000  0.42900000  1.0
  Mo  Mo36  1  0.08280000  0.79362000  0.51381000  1.0
  Mo  Mo37  1  0.16897000  0.37641000  0.55285000  1.0
  Mo  Mo38  1  0.11758000  0.64848000  0.42458000  1.0
  Mo  Mo39  1  0.20620000  0.79594000  0.57507000  1.0
  Mo  Mo40  1  0.18709000  0.50048000  0.63855000  1.0
  Mo  Mo41  1  0.20280000  0.67397000  0.65120000  1.0
  Mo  Mo42  1  0.06708000  0.56188000  0.50306000  1.0
  Mo  Mo43  1  0.10814000  0.43515000  0.55294000  1.0
  Mo  Mo44  1  0.67362000  0.98442000  0.48721000  1.0
  Mo  Mo45  1  0.69348000  0.21286000  0.50748000  1.0
  Mo  Mo46  1  0.65235000  0.35132000  0.59034000  1.0
  Mo  Mo47  1  0.57250000  0.18445000  0.42900000  1.0
  Mo  Mo48  1  0.58280000  0.29362000  0.51381000  1.0
  Mo  Mo49  1  0.66897000  0.87641000  0.55285000  1.0
  Mo  Mo50  1  0.61758000  0.14848000  0.42458000  1.0
  Mo  Mo51  1  0.70620000  0.29594000  0.57507000  1.0
  Mo  Mo52  1  0.68709000  0.00048000  0.63855000  1.0
  Mo  Mo53  1  0.70280000  0.17397000  0.65120000  1.0
  Mo  Mo54  1  0.56708000  0.06188000  0.50306000  1.0
  Mo  Mo55  1  0.60814000  0.93515000  0.55294000  1.0
  Mo  Mo56  1  0.17362000  0.51558000  0.98721000  1.0
  Mo  Mo57  1  0.19348000  0.28714000  0.00748000  1.0
  Mo  Mo58  1  0.15235000  0.14868000  0.09034000  1.0
  Mo  Mo59  1  0.07250000  0.31555000  0.92900000  1.0
  Mo  Mo60  1  0.08280000  0.20638000  0.01381000  1.0
  Mo  Mo61  1  0.16897000  0.62359000  0.05285000  1.0
  Mo  Mo62  1  0.11758000  0.35152000  0.92458000  1.0
  Mo  Mo63  1  0.20620000  0.20406000  0.07507000  1.0
  Mo  Mo64  1  0.18709000  0.49952000  0.13855000  1.0
  Mo  Mo65  1  0.20280000  0.32603000  0.15120000  1.0
  Mo  Mo66  1  0.06708000  0.43812000  0.00306000  1.0
  Mo  Mo67  1  0.10814000  0.56485000  0.05294000  1.0
  Mo  Mo68  1  0.67362000  0.01558000  0.98721000  1.0
  Mo  Mo69  1  0.69348000  0.78714000  0.00748000  1.0
  Mo  Mo70  1  0.65235000  0.64868000  0.09034000  1.0
  Mo  Mo71  1  0.57250000  0.81555000  0.92900000  1.0
  Mo  Mo72  1  0.58280000  0.70638000  0.01381000  1.0
  Mo  Mo73  1  0.66897000  0.12359000  0.05285000  1.0
  Mo  Mo74  1  0.61758000  0.85152000  0.92458000  1.0
  Mo  Mo75  1  0.70620000  0.70406000  0.07507000  1.0
  Mo  Mo76  1  0.68709000  0.99952000  0.13855000  1.0
  Mo  Mo77  1  0.70280000  0.82603000  0.15120000  1.0
  Mo  Mo78  1  0.56708000  0.93812000  0.00306000  1.0
  Mo  Mo79  1  0.60814000  0.06485000  0.05294000  1.0
  Mo  Mo80  1  0.82638000  0.48442000  0.01279000  1.0
  Mo  Mo81  1  0.80652000  0.71286000  0.99252000  1.0
  Mo  Mo82  1  0.84765000  0.85132000  0.90966000  1.0
  Mo  Mo83  1  0.92750000  0.68445000  0.07100000  1.0
  Mo  Mo84  1  0.91720000  0.79362000  0.98619000  1.0
  Mo  Mo85  1  0.83103000  0.37641000  0.94715000  1.0
  Mo  Mo86  1  0.88242000  0.64848000  0.07542000  1.0
  Mo  Mo87  1  0.79380000  0.79594000  0.92493000  1.0
  Mo  Mo88  1  0.81291000  0.50048000  0.86145000  1.0
  Mo  Mo89  1  0.79720000  0.67397000  0.84880000  1.0
  Mo  Mo90  1  0.93292000  0.56188000  0.99694000  1.0
  Mo  Mo91  1  0.89186000  0.43515000  0.94706000  1.0
  Mo  Mo92  1  0.32638000  0.98442000  0.01279000  1.0
  Mo  Mo93  1  0.30652000  0.21286000  0.99252000  1.0
  Mo  Mo94  1  0.34765000  0.35132000  0.90966000  1.0
  Mo  Mo95  1  0.42750000  0.18445000  0.07100000  1.0
  Mo  Mo96  1  0.41720000  0.29362000  0.98619000  1.0
  Mo  Mo97  1  0.33103000  0.87641000  0.94715000  1.0
  Mo  Mo98  1  0.38242000  0.14848000  0.07542000  1.0
  Mo  Mo99  1  0.29380000  0.29594000  0.92493000  1.0
  Mo  Mo100  1  0.31291000  0.00048000  0.86145000  1.0
  Mo  Mo101  1  0.29720000  0.17397000  0.84880000  1.0
  Mo  Mo102  1  0.43292000  0.06188000  0.99694000  1.0
  Mo  Mo103  1  0.39186000  0.93515000  0.94706000  1.0
  Mo  Mo104  1  0.82638000  0.51558000  0.51279000  1.0
  Mo  Mo105  1  0.80652000  0.28714000  0.49252000  1.0
  Mo  Mo106  1  0.84765000  0.14868000  0.40966000  1.0
  Mo  Mo107  1  0.92750000  0.31555000  0.57100000  1.0
  Mo  Mo108  1  0.91720000  0.20638000  0.48619000  1.0
  Mo  Mo109  1  0.83103000  0.62359000  0.44715000  1.0
  Mo  Mo110  1  0.88242000  0.35152000  0.57542000  1.0
  Mo  Mo111  1  0.79380000  0.20406000  0.42493000  1.0
  Mo  Mo112  1  0.81291000  0.49952000  0.36145000  1.0
  Mo  Mo113  1  0.79720000  0.32603000  0.34880000  1.0
  Mo  Mo114  1  0.93292000  0.43812000  0.49694000  1.0
  Mo  Mo115  1  0.89186000  0.56485000  0.44706000  1.0
  Mo  Mo116  1  0.32638000  0.01558000  0.51279000  1.0
  Mo  Mo117  1  0.30652000  0.78714000  0.49252000  1.0
  Mo  Mo118  1  0.34765000  0.64868000  0.40966000  1.0
  Mo  Mo119  1  0.42750000  0.81555000  0.57100000  1.0
  Mo  Mo120  1  0.41720000  0.70638000  0.48619000  1.0
  Mo  Mo121  1  0.33103000  0.12359000  0.44715000  1.0
  Mo  Mo122  1  0.38242000  0.85152000  0.57542000  1.0
  Mo  Mo123  1  0.29380000  0.70406000  0.42493000  1.0
  Mo  Mo124  1  0.31291000  0.99952000  0.36145000  1.0
  Mo  Mo125  1  0.29720000  0.82603000  0.34880000  1.0
  Mo  Mo126  1  0.43292000  0.93812000  0.49694000  1.0
  Mo  Mo127  1  0.39186000  0.06485000  0.44706000  1.0
  H  H128  1  0.12280000  0.42970000  0.38480000  1.0
  H  H129  1  0.13910000  0.29250000  0.43370000  1.0
  H  H130  1  0.10910000  0.26290000  0.25410000  1.0
  H  H131  1  0.55420000  0.29440000  0.88740000  1.0
  H  H132  1  0.48030000  0.12460000  0.83290000  1.0
  H  H133  1  0.44810000  0.24830000  0.79580000  1.0
  H  H134  1  0.52210000  0.42330000  0.85930000  1.0
  H  H135  1  0.31870000  0.43030000  0.67030000  1.0
  H  H136  1  0.12710000  0.54720000  0.22000000  1.0
  H  H137  1  0.12450000  0.53700000  0.27560000  1.0
  H  H138  1  0.11130000  0.27570000  0.19920000  1.0
  H  H139  1  0.33660000  0.69480000  0.71170000  1.0
  H  H140  1  0.48520000  0.53890000  0.82360000  1.0
  H  H141  1  0.37190000  0.40640000  0.70720000  1.0
  H  H142  1  0.38960000  0.65740000  0.75180000  1.0
  H  H143  1  0.13450000  0.16900000  0.46780000  1.0
  H  H144  1  0.08020000  0.16730000  0.32120000  1.0
  H  H145  1  0.07670000  0.04530000  0.35080000  1.0
  H  H146  1  0.62280000  0.92970000  0.38480000  1.0
  H  H147  1  0.63910000  0.79250000  0.43370000  1.0
  H  H148  1  0.60910000  0.76290000  0.25410000  1.0
  H  H149  1  0.05420000  0.79440000  0.88740000  1.0
  H  H150  1  0.98030000  0.62460000  0.83290000  1.0
  H  H151  1  0.94810000  0.74830000  0.79580000  1.0
  H  H152  1  0.02210000  0.92330000  0.85930000  1.0
  H  H153  1  0.81870000  0.93030000  0.67030000  1.0
  H  H154  1  0.62710000  0.04720000  0.22000000  1.0
  H  H155  1  0.62450000  0.03700000  0.27560000  1.0
  H  H156  1  0.61130000  0.77570000  0.19920000  1.0
  H  H157  1  0.83660000  0.19480000  0.71170000  1.0
  H  H158  1  0.98520000  0.03890000  0.82360000  1.0
  H  H159  1  0.87190000  0.90640000  0.70720000  1.0
  H  H160  1  0.88960000  0.15740000  0.75180000  1.0
  H  H161  1  0.63450000  0.66900000  0.46780000  1.0
  H  H162  1  0.58020000  0.66730000  0.32120000  1.0
  H  H163  1  0.57670000  0.54530000  0.35080000  1.0
  H  H164  1  0.12280000  0.57030000  0.88480000  1.0
  H  H165  1  0.13910000  0.70750000  0.93370000  1.0
  H  H166  1  0.10910000  0.73710000  0.75410000  1.0
  H  H167  1  0.55420000  0.70560000  0.38740000  1.0
  H  H168  1  0.48030000  0.87540000  0.33290000  1.0
  H  H169  1  0.44810000  0.75170000  0.29580000  1.0
  H  H170  1  0.52210000  0.57670000  0.35930000  1.0
  H  H171  1  0.31870000  0.56970000  0.17030000  1.0
  H  H172  1  0.12710000  0.45280000  0.72000000  1.0
  H  H173  1  0.12450000  0.46300000  0.77560000  1.0
  H  H174  1  0.11130000  0.72430000  0.69920000  1.0
  H  H175  1  0.33660000  0.30520000  0.21170000  1.0
  H  H176  1  0.48520000  0.46110000  0.32360000  1.0
  H  H177  1  0.37190000  0.59360000  0.20720000  1.0
  H  H178  1  0.38960000  0.34260000  0.25180000  1.0
  H  H179  1  0.13450000  0.83100000  0.96780000  1.0
  H  H180  1  0.08020000  0.83270000  0.82120000  1.0
  H  H181  1  0.07670000  0.95470000  0.85080000  1.0
  H  H182  1  0.62280000  0.07030000  0.88480000  1.0
  H  H183  1  0.63910000  0.20750000  0.93370000  1.0
  H  H184  1  0.60910000  0.23710000  0.75410000  1.0
  H  H185  1  0.05420000  0.20560000  0.38740000  1.0
  H  H186  1  0.98030000  0.37540000  0.33290000  1.0
  H  H187  1  0.94810000  0.25170000  0.29580000  1.0
  H  H188  1  0.02210000  0.07670000  0.35930000  1.0
  H  H189  1  0.81870000  0.06970000  0.17030000  1.0
  H  H190  1  0.62710000  0.95280000  0.72000000  1.0
  H  H191  1  0.62450000  0.96300000  0.77560000  1.0
  H  H192  1  0.61130000  0.22430000  0.69920000  1.0
  H  H193  1  0.83660000  0.80520000  0.21170000  1.0
  H  H194  1  0.98520000  0.96110000  0.32360000  1.0
  H  H195  1  0.87190000  0.09360000  0.20720000  1.0
  H  H196  1  0.88960000  0.84260000  0.25180000  1.0
  H  H197  1  0.63450000  0.33100000  0.96780000  1.0
  H  H198  1  0.58020000  0.33270000  0.82120000  1.0
  H  H199  1  0.57670000  0.45470000  0.85080000  1.0
  H  H200  1  0.87720000  0.42970000  0.11520000  1.0
  H  H201  1  0.86090000  0.29250000  0.06630000  1.0
  H  H202  1  0.89090000  0.26290000  0.24590000  1.0
  H  H203  1  0.44580000  0.29440000  0.61260000  1.0
  H  H204  1  0.51970000  0.12460000  0.66710000  1.0
  H  H205  1  0.55190000  0.24830000  0.70420000  1.0
  H  H206  1  0.47790000  0.42330000  0.64070000  1.0
  H  H207  1  0.68130000  0.43030000  0.82970000  1.0
  H  H208  1  0.87290000  0.54720000  0.28000000  1.0
  H  H209  1  0.87550000  0.53700000  0.22440000  1.0
  H  H210  1  0.88870000  0.27570000  0.30080000  1.0
  H  H211  1  0.66340000  0.69480000  0.78830000  1.0
  H  H212  1  0.51480000  0.53890000  0.67640000  1.0
  H  H213  1  0.62810000  0.40640000  0.79280000  1.0
  H  H214  1  0.61040000  0.65740000  0.74820000  1.0
  H  H215  1  0.86550000  0.16900000  0.03220000  1.0
  H  H216  1  0.91980000  0.16730000  0.17880000  1.0
  H  H217  1  0.92330000  0.04530000  0.14920000  1.0
  H  H218  1  0.37720000  0.92970000  0.11520000  1.0
  H  H219  1  0.36090000  0.79250000  0.06630000  1.0
  H  H220  1  0.39090000  0.76290000  0.24590000  1.0
  H  H221  1  0.94580000  0.79440000  0.61260000  1.0
  H  H222  1  0.01970000  0.62460000  0.66710000  1.0
  H  H223  1  0.05190000  0.74830000  0.70420000  1.0
  H  H224  1  0.97790000  0.92330000  0.64070000  1.0
  H  H225  1  0.18130000  0.93030000  0.82970000  1.0
  H  H226  1  0.37290000  0.04720000  0.28000000  1.0
  H  H227  1  0.37550000  0.03700000  0.22440000  1.0
  H  H228  1  0.38870000  0.77570000  0.30080000  1.0
  H  H229  1  0.16340000  0.19480000  0.78830000  1.0
  H  H230  1  0.01480000  0.03890000  0.67640000  1.0
  H  H231  1  0.12810000  0.90640000  0.79280000  1.0
  H  H232  1  0.11040000  0.15740000  0.74820000  1.0
  H  H233  1  0.36550000  0.66900000  0.03220000  1.0
  H  H234  1  0.41980000  0.66730000  0.17880000  1.0
  H  H235  1  0.42330000  0.54530000  0.14920000  1.0
  H  H236  1  0.87720000  0.57030000  0.61520000  1.0
  H  H237  1  0.86090000  0.70750000  0.56630000  1.0
  H  H238  1  0.89090000  0.73710000  0.74590000  1.0
  H  H239  1  0.44580000  0.70560000  0.11260000  1.0
  H  H240  1  0.51970000  0.87540000  0.16710000  1.0
  H  H241  1  0.55190000  0.75170000  0.20420000  1.0
  H  H242  1  0.47790000  0.57670000  0.14070000  1.0
  H  H243  1  0.68130000  0.56970000  0.32970000  1.0
  H  H244  1  0.87290000  0.45280000  0.78000000  1.0
  H  H245  1  0.87550000  0.46300000  0.72440000  1.0
  H  H246  1  0.88870000  0.72430000  0.80080000  1.0
  H  H247  1  0.66340000  0.30520000  0.28830000  1.0
  H  H248  1  0.51480000  0.46110000  0.17640000  1.0
  H  H249  1  0.62810000  0.59360000  0.29280000  1.0
  H  H250  1  0.61040000  0.34260000  0.24820000  1.0
  H  H251  1  0.86550000  0.83100000  0.53220000  1.0
  H  H252  1  0.91980000  0.83270000  0.67880000  1.0
  H  H253  1  0.92330000  0.95470000  0.64920000  1.0
  H  H254  1  0.37720000  0.07030000  0.61520000  1.0
  H  H255  1  0.36090000  0.20750000  0.56630000  1.0
  H  H256  1  0.39090000  0.23710000  0.74590000  1.0
  H  H257  1  0.94580000  0.20560000  0.11260000  1.0
  H  H258  1  0.01970000  0.37540000  0.16710000  1.0
  H  H259  1  0.05190000  0.25170000  0.20420000  1.0
  H  H260  1  0.97790000  0.07670000  0.14070000  1.0
  H  H261  1  0.18130000  0.06970000  0.32970000  1.0
  H  H262  1  0.37290000  0.95280000  0.78000000  1.0
  H  H263  1  0.37550000  0.96300000  0.72440000  1.0
  H  H264  1  0.38870000  0.22430000  0.80080000  1.0
  H  H265  1  0.16340000  0.80520000  0.28830000  1.0
  H  H266  1  0.01480000  0.96110000  0.17640000  1.0
  H  H267  1  0.12810000  0.09360000  0.29280000  1.0
  H  H268  1  0.11040000  0.84260000  0.24820000  1.0
  H  H269  1  0.36550000  0.33100000  0.53220000  1.0
  H  H270  1  0.41980000  0.33270000  0.67880000  1.0
  H  H271  1  0.42330000  0.45470000  0.64920000  1.0
  C  C272  1  0.11480000  0.38690000  0.30710000  1.0
  C  C273  1  0.12620000  0.24290000  0.41760000  1.0
  C  C274  1  0.11590000  0.40060000  0.27200000  1.0
  C  C275  1  0.11240000  0.32060000  0.24720000  1.0
  C  C276  1  0.11230000  0.31790000  0.35120000  1.0
  C  C277  1  0.10900000  0.24410000  0.37270000  1.0
  C  C278  1  0.45920000  0.42720000  0.80140000  1.0
  C  C279  1  0.48100000  0.34980000  0.82220000  1.0
  C  C280  1  0.53270000  0.28710000  0.87080000  1.0
  C  C281  1  0.48830000  0.18380000  0.83690000  1.0
  C  C282  1  0.46950000  0.25790000  0.81560000  1.0
  C  C283  1  0.52100000  0.20180000  0.86560000  1.0
  C  C284  1  0.54170000  0.12500000  0.88990000  1.0
  C  C285  1  0.51380000  0.36420000  0.85230000  1.0
  C  C286  1  0.41800000  0.50450000  0.76510000  1.0
  C  C287  1  0.32130000  0.56720000  0.68350000  1.0
  C  C288  1  0.33270000  0.47850000  0.68550000  1.0
  C  C289  1  0.12330000  0.49020000  0.22670000  1.0
  C  C290  1  0.12170000  0.48390000  0.26040000  1.0
  C  C291  1  0.11390000  0.32810000  0.21470000  1.0
  C  C292  1  0.10640000  0.09050000  0.41290000  1.0
  C  C293  1  0.34290000  0.63620000  0.71040000  1.0
  C  C294  1  0.10630000  0.00810000  0.43390000  1.0
  C  C295  1  0.36460000  0.46180000  0.70980000  1.0
  C  C296  1  0.37460000  0.61210000  0.73530000  1.0
  C  C297  1  0.28730000  0.58240000  0.65730000  1.0
  C  C298  1  0.38400000  0.52540000  0.73620000  1.0
  C  C299  1  0.12440000  0.16800000  0.43850000  1.0
  C  C300  1  0.09150000  0.16720000  0.35080000  1.0
  C  C301  1  0.11950000  0.41470000  0.20340000  1.0
  C  C302  1  0.12240000  0.41780000  0.17040000  1.0
  C  C303  1  0.08930000  0.09400000  0.36790000  1.0
  C  C304  1  0.61480000  0.88690000  0.30710000  1.0
  C  C305  1  0.62620000  0.74290000  0.41760000  1.0
  C  C306  1  0.61590000  0.90060000  0.27200000  1.0
  C  C307  1  0.61240000  0.82060000  0.24720000  1.0
  C  C308  1  0.61230000  0.81790000  0.35120000  1.0
  C  C309  1  0.60900000  0.74410000  0.37270000  1.0
  C  C310  1  0.95920000  0.92720000  0.80140000  1.0
  C  C311  1  0.98100000  0.84980000  0.82220000  1.0
  C  C312  1  0.03270000  0.78710000  0.87080000  1.0
  C  C313  1  0.98830000  0.68380000  0.83690000  1.0
  C  C314  1  0.96950000  0.75790000  0.81560000  1.0
  C  C315  1  0.02100000  0.70180000  0.86560000  1.0
  C  C316  1  0.04170000  0.62500000  0.88990000  1.0
  C  C317  1  0.01380000  0.86420000  0.85230000  1.0
  C  C318  1  0.91800000  0.00450000  0.76510000  1.0
  C  C319  1  0.82130000  0.06720000  0.68350000  1.0
  C  C320  1  0.83270000  0.97850000  0.68550000  1.0
  C  C321  1  0.62330000  0.99020000  0.22670000  1.0
  C  C322  1  0.62170000  0.98390000  0.26040000  1.0
  C  C323  1  0.61390000  0.82810000  0.21470000  1.0
  C  C324  1  0.60640000  0.59050000  0.41290000  1.0
  C  C325  1  0.84290000  0.13620000  0.71040000  1.0
  C  C326  1  0.60630000  0.50810000  0.43390000  1.0
  C  C327  1  0.86460000  0.96180000  0.70980000  1.0
  C  C328  1  0.87460000  0.11210000  0.73530000  1.0
  C  C329  1  0.78730000  0.08240000  0.65730000  1.0
  C  C330  1  0.88400000  0.02540000  0.73620000  1.0
  C  C331  1  0.62440000  0.66800000  0.43850000  1.0
  C  C332  1  0.59150000  0.66720000  0.35080000  1.0
  C  C333  1  0.61950000  0.91470000  0.20340000  1.0
  C  C334  1  0.62240000  0.91780000  0.17040000  1.0
  C  C335  1  0.58930000  0.59400000  0.36790000  1.0
  C  C336  1  0.11480000  0.61310000  0.80710000  1.0
  C  C337  1  0.12620000  0.75710000  0.91760000  1.0
  C  C338  1  0.11590000  0.59940000  0.77200000  1.0
  C  C339  1  0.11240000  0.67940000  0.74720000  1.0
  C  C340  1  0.11230000  0.68210000  0.85120000  1.0
  C  C341  1  0.10900000  0.75590000  0.87270000  1.0
  C  C342  1  0.45920000  0.57280000  0.30140000  1.0
  C  C343  1  0.48100000  0.65020000  0.32220000  1.0
  C  C344  1  0.53270000  0.71290000  0.37080000  1.0
  C  C345  1  0.48830000  0.81620000  0.33690000  1.0
  C  C346  1  0.46950000  0.74210000  0.31560000  1.0
  C  C347  1  0.52100000  0.79820000  0.36560000  1.0
  C  C348  1  0.54170000  0.87500000  0.38990000  1.0
  C  C349  1  0.51380000  0.63580000  0.35230000  1.0
  C  C350  1  0.41800000  0.49550000  0.26510000  1.0
  C  C351  1  0.32130000  0.43280000  0.18350000  1.0
  C  C352  1  0.33270000  0.52150000  0.18550000  1.0
  C  C353  1  0.12330000  0.50980000  0.72670000  1.0
  C  C354  1  0.12170000  0.51610000  0.76040000  1.0
  C  C355  1  0.11390000  0.67190000  0.71470000  1.0
  C  C356  1  0.10640000  0.90950000  0.91290000  1.0
  C  C357  1  0.34290000  0.36380000  0.21040000  1.0
  C  C358  1  0.10630000  0.99190000  0.93390000  1.0
  C  C359  1  0.36460000  0.53820000  0.20980000  1.0
  C  C360  1  0.37460000  0.38790000  0.23530000  1.0
  C  C361  1  0.28730000  0.41760000  0.15730000  1.0
  C  C362  1  0.38400000  0.47460000  0.23620000  1.0
  C  C363  1  0.12440000  0.83200000  0.93850000  1.0
  C  C364  1  0.09150000  0.83280000  0.85080000  1.0
  C  C365  1  0.11950000  0.58530000  0.70340000  1.0
  C  C366  1  0.12240000  0.58220000  0.67040000  1.0
  C  C367  1  0.08930000  0.90600000  0.86790000  1.0
  C  C368  1  0.61480000  0.11310000  0.80710000  1.0
  C  C369  1  0.62620000  0.25710000  0.91760000  1.0
  C  C370  1  0.61590000  0.09940000  0.77200000  1.0
  C  C371  1  0.61240000  0.17940000  0.74720000  1.0
  C  C372  1  0.61230000  0.18210000  0.85120000  1.0
  C  C373  1  0.60900000  0.25590000  0.87270000  1.0
  C  C374  1  0.95920000  0.07280000  0.30140000  1.0
  C  C375  1  0.98100000  0.15020000  0.32220000  1.0
  C  C376  1  0.03270000  0.21290000  0.37080000  1.0
  C  C377  1  0.98830000  0.31620000  0.33690000  1.0
  C  C378  1  0.96950000  0.24210000  0.31560000  1.0
  C  C379  1  0.02100000  0.29820000  0.36560000  1.0
  C  C380  1  0.04170000  0.37500000  0.38990000  1.0
  C  C381  1  0.01380000  0.13580000  0.35230000  1.0
  C  C382  1  0.91800000  0.99550000  0.26510000  1.0
  C  C383  1  0.82130000  0.93280000  0.18350000  1.0
  C  C384  1  0.83270000  0.02150000  0.18550000  1.0
  C  C385  1  0.62330000  0.00980000  0.72670000  1.0
  C  C386  1  0.62170000  0.01610000  0.76040000  1.0
  C  C387  1  0.61390000  0.17190000  0.71470000  1.0
  C  C388  1  0.60640000  0.40950000  0.91290000  1.0
  C  C389  1  0.84290000  0.86380000  0.21040000  1.0
  C  C390  1  0.60630000  0.49190000  0.93390000  1.0
  C  C391  1  0.86460000  0.03820000  0.20980000  1.0
  C  C392  1  0.87460000  0.88790000  0.23530000  1.0
  C  C393  1  0.78730000  0.91760000  0.15730000  1.0
  C  C394  1  0.88400000  0.97460000  0.23620000  1.0
  C  C395  1  0.62440000  0.33200000  0.93850000  1.0
  C  C396  1  0.59150000  0.33280000  0.85080000  1.0
  C  C397  1  0.61950000  0.08530000  0.70340000  1.0
  C  C398  1  0.62240000  0.08220000  0.67040000  1.0
  C  C399  1  0.58930000  0.40600000  0.86790000  1.0
  C  C400  1  0.88520000  0.38690000  0.19290000  1.0
  C  C401  1  0.87380000  0.24290000  0.08240000  1.0
  C  C402  1  0.88410000  0.40060000  0.22800000  1.0
  C  C403  1  0.88760000  0.32060000  0.25280000  1.0
  C  C404  1  0.88770000  0.31790000  0.14880000  1.0
  C  C405  1  0.89100000  0.24410000  0.12730000  1.0
  C  C406  1  0.54080000  0.42720000  0.69860000  1.0
  C  C407  1  0.51900000  0.34980000  0.67780000  1.0
  C  C408  1  0.46730000  0.28710000  0.62920000  1.0
  C  C409  1  0.51170000  0.18380000  0.66310000  1.0
  C  C410  1  0.53050000  0.25790000  0.68440000  1.0
  C  C411  1  0.47900000  0.20180000  0.63440000  1.0
  C  C412  1  0.45830000  0.12500000  0.61010000  1.0
  C  C413  1  0.48620000  0.36420000  0.64770000  1.0
  C  C414  1  0.58200000  0.50450000  0.73490000  1.0
  C  C415  1  0.67870000  0.56720000  0.81650000  1.0
  C  C416  1  0.66730000  0.47850000  0.81450000  1.0
  C  C417  1  0.87670000  0.49020000  0.27330000  1.0
  C  C418  1  0.87830000  0.48390000  0.23960000  1.0
  C  C419  1  0.88610000  0.32810000  0.28530000  1.0
  C  C420  1  0.89360000  0.09050000  0.08710000  1.0
  C  C421  1  0.65710000  0.63620000  0.78960000  1.0
  C  C422  1  0.89370000  0.00810000  0.06610000  1.0
  C  C423  1  0.63540000  0.46180000  0.79020000  1.0
  C  C424  1  0.62540000  0.61210000  0.76470000  1.0
  C  C425  1  0.71270000  0.58240000  0.84270000  1.0
  C  C426  1  0.61600000  0.52540000  0.76380000  1.0
  C  C427  1  0.87560000  0.16800000  0.06150000  1.0
  C  C428  1  0.90850000  0.16720000  0.14920000  1.0
  C  C429  1  0.88050000  0.41470000  0.29660000  1.0
  C  C430  1  0.87760000  0.41780000  0.32960000  1.0
  C  C431  1  0.91070000  0.09400000  0.13210000  1.0
  C  C432  1  0.38520000  0.88690000  0.19290000  1.0
  C  C433  1  0.37380000  0.74290000  0.08240000  1.0
  C  C434  1  0.38410000  0.90060000  0.22800000  1.0
  C  C435  1  0.38760000  0.82060000  0.25280000  1.0
  C  C436  1  0.38770000  0.81790000  0.14880000  1.0
  C  C437  1  0.39100000  0.74410000  0.12730000  1.0
  C  C438  1  0.04080000  0.92720000  0.69860000  1.0
  C  C439  1  0.01900000  0.84980000  0.67780000  1.0
  C  C440  1  0.96730000  0.78710000  0.62920000  1.0
  C  C441  1  0.01170000  0.68380000  0.66310000  1.0
  C  C442  1  0.03050000  0.75790000  0.68440000  1.0
  C  C443  1  0.97900000  0.70180000  0.63440000  1.0
  C  C444  1  0.95830000  0.62500000  0.61010000  1.0
  C  C445  1  0.98620000  0.86420000  0.64770000  1.0
  C  C446  1  0.08200000  0.00450000  0.73490000  1.0
  C  C447  1  0.17870000  0.06720000  0.81650000  1.0
  C  C448  1  0.16730000  0.97850000  0.81450000  1.0
  C  C449  1  0.37670000  0.99020000  0.27330000  1.0
  C  C450  1  0.37830000  0.98390000  0.23960000  1.0
  C  C451  1  0.38610000  0.82810000  0.28530000  1.0
  C  C452  1  0.39360000  0.59050000  0.08710000  1.0
  C  C453  1  0.15710000  0.13620000  0.78960000  1.0
  C  C454  1  0.39370000  0.50810000  0.06610000  1.0
  C  C455  1  0.13540000  0.96180000  0.79020000  1.0
  C  C456  1  0.12540000  0.11210000  0.76470000  1.0
  C  C457  1  0.21270000  0.08240000  0.84270000  1.0
  C  C458  1  0.11600000  0.02540000  0.76380000  1.0
  C  C459  1  0.37560000  0.66800000  0.06150000  1.0
  C  C460  1  0.40850000  0.66720000  0.14920000  1.0
  C  C461  1  0.38050000  0.91470000  0.29660000  1.0
  C  C462  1  0.37760000  0.91780000  0.32960000  1.0
  C  C463  1  0.41070000  0.59400000  0.13210000  1.0
  C  C464  1  0.88520000  0.61310000  0.69290000  1.0
  C  C465  1  0.87380000  0.75710000  0.58240000  1.0
  C  C466  1  0.88410000  0.59940000  0.72800000  1.0
  C  C467  1  0.88760000  0.67940000  0.75280000  1.0
  C  C468  1  0.88770000  0.68210000  0.64880000  1.0
  C  C469  1  0.89100000  0.75590000  0.62730000  1.0
  C  C470  1  0.54080000  0.57280000  0.19860000  1.0
  C  C471  1  0.51900000  0.65020000  0.17780000  1.0
  C  C472  1  0.46730000  0.71290000  0.12920000  1.0
  C  C473  1  0.51170000  0.81620000  0.16310000  1.0
  C  C474  1  0.53050000  0.74210000  0.18440000  1.0
  C  C475  1  0.47900000  0.79820000  0.13440000  1.0
  C  C476  1  0.45830000  0.87500000  0.11010000  1.0
  C  C477  1  0.48620000  0.63580000  0.14770000  1.0
  C  C478  1  0.58200000  0.49550000  0.23490000  1.0
  C  C479  1  0.67870000  0.43280000  0.31650000  1.0
  C  C480  1  0.66730000  0.52150000  0.31450000  1.0
  C  C481  1  0.87670000  0.50980000  0.77330000  1.0
  C  C482  1  0.87830000  0.51610000  0.73960000  1.0
  C  C483  1  0.88610000  0.67190000  0.78530000  1.0
  C  C484  1  0.89360000  0.90950000  0.58710000  1.0
  C  C485  1  0.65710000  0.36380000  0.28960000  1.0
  C  C486  1  0.89370000  0.99190000  0.56610000  1.0
  C  C487  1  0.63540000  0.53820000  0.29020000  1.0
  C  C488  1  0.62540000  0.38790000  0.26470000  1.0
  C  C489  1  0.71270000  0.41760000  0.34270000  1.0
  C  C490  1  0.61600000  0.47460000  0.26380000  1.0
  C  C491  1  0.87560000  0.83200000  0.56150000  1.0
  C  C492  1  0.90850000  0.83280000  0.64920000  1.0
  C  C493  1  0.88050000  0.58530000  0.79660000  1.0
  C  C494  1  0.87760000  0.58220000  0.82960000  1.0
  C  C495  1  0.91070000  0.90600000  0.63210000  1.0
  C  C496  1  0.38520000  0.11310000  0.69290000  1.0
  C  C497  1  0.37380000  0.25710000  0.58240000  1.0
  C  C498  1  0.38410000  0.09940000  0.72800000  1.0
  C  C499  1  0.38760000  0.17940000  0.75280000  1.0
  C  C500  1  0.38770000  0.18210000  0.64880000  1.0
  C  C501  1  0.39100000  0.25590000  0.62730000  1.0
  C  C502  1  0.04080000  0.07280000  0.19860000  1.0
  C  C503  1  0.01900000  0.15020000  0.17780000  1.0
  C  C504  1  0.96730000  0.21290000  0.12920000  1.0
  C  C505  1  0.01170000  0.31620000  0.16310000  1.0
  C  C506  1  0.03050000  0.24210000  0.18440000  1.0
  C  C507  1  0.97900000  0.29820000  0.13440000  1.0
  C  C508  1  0.95830000  0.37500000  0.11010000  1.0
  C  C509  1  0.98620000  0.13580000  0.14770000  1.0
  C  C510  1  0.08200000  0.99550000  0.23490000  1.0
  C  C511  1  0.17870000  0.93280000  0.31650000  1.0
  C  C512  1  0.16730000  0.02150000  0.31450000  1.0
  C  C513  1  0.37670000  0.00980000  0.77330000  1.0
  C  C514  1  0.37830000  0.01610000  0.73960000  1.0
  C  C515  1  0.38610000  0.17190000  0.78530000  1.0
  C  C516  1  0.39360000  0.40950000  0.58710000  1.0
  C  C517  1  0.15710000  0.86380000  0.28960000  1.0
  C  C518  1  0.39370000  0.49190000  0.56610000  1.0
  C  C519  1  0.13540000  0.03820000  0.29020000  1.0
  C  C520  1  0.12540000  0.88790000  0.26470000  1.0
  C  C521  1  0.21270000  0.91760000  0.34270000  1.0
  C  C522  1  0.11600000  0.97460000  0.26380000  1.0
  C  C523  1  0.37560000  0.33200000  0.56150000  1.0
  C  C524  1  0.40850000  0.33280000  0.64920000  1.0
  C  C525  1  0.38050000  0.08530000  0.79660000  1.0
  C  C526  1  0.37760000  0.08220000  0.82960000  1.0
  C  C527  1  0.41070000  0.40600000  0.63210000  1.0
  N  N528  1  0.12000000  0.40550000  0.36280000  1.0
  N  N529  1  0.11030000  0.30630000  0.31690000  1.0
  N  N530  1  0.12300000  0.45170000  0.33620000  1.0
  N  N531  1  0.42850000  0.41860000  0.77220000  1.0
  N  N532  1  0.46650000  0.51730000  0.80780000  1.0
  N  N533  1  0.44030000  0.56920000  0.78580000  1.0
  N  N534  1  0.62000000  0.90550000  0.36280000  1.0
  N  N535  1  0.61030000  0.80630000  0.31690000  1.0
  N  N536  1  0.62300000  0.95170000  0.33620000  1.0
  N  N537  1  0.92850000  0.91860000  0.77220000  1.0
  N  N538  1  0.96650000  0.01730000  0.80780000  1.0
  N  N539  1  0.94030000  0.06920000  0.78580000  1.0
  N  N540  1  0.12000000  0.59450000  0.86280000  1.0
  N  N541  1  0.11030000  0.69370000  0.81690000  1.0
  N  N542  1  0.12300000  0.54830000  0.83620000  1.0
  N  N543  1  0.42850000  0.58140000  0.27220000  1.0
  N  N544  1  0.46650000  0.48270000  0.30780000  1.0
  N  N545  1  0.44030000  0.43080000  0.28580000  1.0
  N  N546  1  0.62000000  0.09450000  0.86280000  1.0
  N  N547  1  0.61030000  0.19370000  0.81690000  1.0
  N  N548  1  0.62300000  0.04830000  0.83620000  1.0
  N  N549  1  0.92850000  0.08140000  0.27220000  1.0
  N  N550  1  0.96650000  0.98270000  0.30780000  1.0
  N  N551  1  0.94030000  0.93080000  0.28580000  1.0
  N  N552  1  0.88000000  0.40550000  0.13720000  1.0
  N  N553  1  0.88970000  0.30630000  0.18310000  1.0
  N  N554  1  0.87700000  0.45170000  0.16380000  1.0
  N  N555  1  0.57150000  0.41860000  0.72780000  1.0
  N  N556  1  0.53350000  0.51730000  0.69220000  1.0
  N  N557  1  0.55970000  0.56920000  0.71420000  1.0
  N  N558  1  0.38000000  0.90550000  0.13720000  1.0
  N  N559  1  0.38970000  0.80630000  0.18310000  1.0
  N  N560  1  0.37700000  0.95170000  0.16380000  1.0
  N  N561  1  0.07150000  0.91860000  0.72780000  1.0
  N  N562  1  0.03350000  0.01730000  0.69220000  1.0
  N  N563  1  0.05970000  0.06920000  0.71420000  1.0
  N  N564  1  0.88000000  0.59450000  0.63720000  1.0
  N  N565  1  0.88970000  0.69370000  0.68310000  1.0
  N  N566  1  0.87700000  0.54830000  0.66380000  1.0
  N  N567  1  0.57150000  0.58140000  0.22780000  1.0
  N  N568  1  0.53350000  0.48270000  0.19220000  1.0
  N  N569  1  0.55970000  0.43080000  0.21420000  1.0
  N  N570  1  0.38000000  0.09450000  0.63720000  1.0
  N  N571  1  0.38970000  0.19370000  0.68310000  1.0
  N  N572  1  0.37700000  0.04830000  0.66380000  1.0
  N  N573  1  0.07150000  0.08140000  0.22780000  1.0
  N  N574  1  0.03350000  0.98270000  0.19220000  1.0
  N  N575  1  0.05970000  0.93080000  0.21420000  1.0
  O  O576  1  0.21400000  0.57010000  0.63150000  1.0
  O  O577  1  0.21740000  0.67480000  0.56740000  1.0
  O  O578  1  0.14390000  0.41660000  0.49280000  1.0
  O  O579  1  0.09080000  0.57010000  0.42960000  1.0
  O  O580  1  0.19650000  0.46240000  0.54960000  1.0
  O  O581  1  0.12000000  0.85280000  0.52690000  1.0
  O  O582  1  0.17220000  0.81170000  0.51400000  1.0
  O  O583  1  0.10850000  0.75490000  0.44500000  1.0
  O  O584  1  0.17870000  0.78940000  0.64070000  1.0
  O  O585  1  0.08620000  0.46360000  0.49250000  1.0
  O  O586  1  0.19300000  0.39850000  0.60980000  1.0
  O  O587  1  0.15870000  0.70530000  0.44870000  1.0
  O  O588  1  0.20010000  0.57680000  0.49910000  1.0
  O  O589  1  0.26920000  0.52300000  0.62760000  1.0
  O  O590  1  0.16640000  0.61150000  0.63760000  1.0
  O  O591  1  0.04750000  0.60140000  0.44050000  1.0
  O  O592  1  0.13290000  0.35090000  0.54470000  1.0
  O  O593  1  0.06670000  0.78510000  0.45890000  1.0
  O  O594  1  0.11760000  0.77230000  0.57650000  1.0
  O  O595  1  0.17990000  0.88250000  0.58220000  1.0
  O  O596  1  0.22740000  0.75090000  0.63680000  1.0
  O  O597  1  0.09960000  0.55540000  0.56510000  1.0
  O  O598  1  0.57000000  0.13890000  0.91220000  1.0
  O  O599  1  0.06220000  0.69060000  0.51380000  1.0
  O  O600  1  0.14030000  0.52850000  0.43530000  1.0
  O  O601  1  0.14690000  0.43790000  0.61770000  1.0
  O  O602  1  0.11460000  0.34490000  0.14640000  1.0
  O  O603  1  0.27820000  0.65700000  0.66050000  1.0
  O  O604  1  0.13100000  0.98410000  0.46990000  1.0
  O  O605  1  0.53130000  0.04880000  0.88990000  1.0
  O  O606  1  0.08360000  0.95640000  0.41700000  1.0
  O  O607  1  0.12980000  0.49200000  0.16240000  1.0
  O  O608  1  0.71400000  0.07010000  0.63150000  1.0
  O  O609  1  0.71740000  0.17480000  0.56740000  1.0
  O  O610  1  0.64390000  0.91660000  0.49280000  1.0
  O  O611  1  0.59080000  0.07010000  0.42960000  1.0
  O  O612  1  0.69650000  0.96240000  0.54960000  1.0
  O  O613  1  0.62000000  0.35280000  0.52690000  1.0
  O  O614  1  0.67220000  0.31170000  0.51400000  1.0
  O  O615  1  0.60850000  0.25490000  0.44500000  1.0
  O  O616  1  0.67870000  0.28940000  0.64070000  1.0
  O  O617  1  0.58620000  0.96360000  0.49250000  1.0
  O  O618  1  0.69300000  0.89850000  0.60980000  1.0
  O  O619  1  0.65870000  0.20530000  0.44870000  1.0
  O  O620  1  0.70010000  0.07680000  0.49910000  1.0
  O  O621  1  0.76920000  0.02300000  0.62760000  1.0
  O  O622  1  0.66640000  0.11150000  0.63760000  1.0
  O  O623  1  0.54750000  0.10140000  0.44050000  1.0
  O  O624  1  0.63290000  0.85090000  0.54470000  1.0
  O  O625  1  0.56670000  0.28510000  0.45890000  1.0
  O  O626  1  0.61760000  0.27230000  0.57650000  1.0
  O  O627  1  0.67990000  0.38250000  0.58220000  1.0
  O  O628  1  0.72740000  0.25090000  0.63680000  1.0
  O  O629  1  0.59960000  0.05540000  0.56510000  1.0
  O  O630  1  0.07000000  0.63890000  0.91220000  1.0
  O  O631  1  0.56220000  0.19060000  0.51380000  1.0
  O  O632  1  0.64030000  0.02850000  0.43530000  1.0
  O  O633  1  0.64690000  0.93790000  0.61770000  1.0
  O  O634  1  0.61460000  0.84490000  0.14640000  1.0
  O  O635  1  0.77820000  0.15700000  0.66050000  1.0
  O  O636  1  0.63100000  0.48410000  0.46990000  1.0
  O  O637  1  0.03130000  0.54880000  0.88990000  1.0
  O  O638  1  0.58360000  0.45640000  0.41700000  1.0
  O  O639  1  0.62980000  0.99200000  0.16240000  1.0
  O  O640  1  0.21400000  0.42990000  0.13150000  1.0
  O  O641  1  0.21740000  0.32520000  0.06740000  1.0
  O  O642  1  0.14390000  0.58340000  0.99280000  1.0
  O  O643  1  0.09080000  0.42990000  0.92960000  1.0
  O  O644  1  0.19650000  0.53760000  0.04960000  1.0
  O  O645  1  0.12000000  0.14720000  0.02690000  1.0
  O  O646  1  0.17220000  0.18830000  0.01400000  1.0
  O  O647  1  0.10850000  0.24510000  0.94500000  1.0
  O  O648  1  0.17870000  0.21060000  0.14070000  1.0
  O  O649  1  0.08620000  0.53640000  0.99250000  1.0
  O  O650  1  0.19300000  0.60150000  0.10980000  1.0
  O  O651  1  0.15870000  0.29470000  0.94870000  1.0
  O  O652  1  0.20010000  0.42320000  0.99910000  1.0
  O  O653  1  0.26920000  0.47700000  0.12760000  1.0
  O  O654  1  0.16640000  0.38850000  0.13760000  1.0
  O  O655  1  0.04750000  0.39860000  0.94050000  1.0
  O  O656  1  0.13290000  0.64910000  0.04470000  1.0
  O  O657  1  0.06670000  0.21490000  0.95890000  1.0
  O  O658  1  0.11760000  0.22770000  0.07650000  1.0
  O  O659  1  0.17990000  0.11750000  0.08220000  1.0
  O  O660  1  0.22740000  0.24910000  0.13680000  1.0
  O  O661  1  0.09960000  0.44460000  0.06510000  1.0
  O  O662  1  0.57000000  0.86110000  0.41220000  1.0
  O  O663  1  0.06220000  0.30940000  0.01380000  1.0
  O  O664  1  0.14030000  0.47150000  0.93530000  1.0
  O  O665  1  0.14690000  0.56210000  0.11770000  1.0
  O  O666  1  0.11460000  0.65510000  0.64640000  1.0
  O  O667  1  0.27820000  0.34300000  0.16050000  1.0
  O  O668  1  0.13100000  0.01590000  0.96990000  1.0
  O  O669  1  0.53130000  0.95120000  0.38990000  1.0
  O  O670  1  0.08360000  0.04360000  0.91700000  1.0
  O  O671  1  0.12980000  0.50800000  0.66240000  1.0
  O  O672  1  0.71400000  0.92990000  0.13150000  1.0
  O  O673  1  0.71740000  0.82520000  0.06740000  1.0
  O  O674  1  0.64390000  0.08340000  0.99280000  1.0
  O  O675  1  0.59080000  0.92990000  0.92960000  1.0
  O  O676  1  0.69650000  0.03760000  0.04960000  1.0
  O  O677  1  0.62000000  0.64720000  0.02690000  1.0
  O  O678  1  0.67220000  0.68830000  0.01400000  1.0
  O  O679  1  0.60850000  0.74510000  0.94500000  1.0
  O  O680  1  0.67870000  0.71060000  0.14070000  1.0
  O  O681  1  0.58620000  0.03640000  0.99250000  1.0
  O  O682  1  0.69300000  0.10150000  0.10980000  1.0
  O  O683  1  0.65870000  0.79470000  0.94870000  1.0
  O  O684  1  0.70010000  0.92320000  0.99910000  1.0
  O  O685  1  0.76920000  0.97700000  0.12760000  1.0
  O  O686  1  0.66640000  0.88850000  0.13760000  1.0
  O  O687  1  0.54750000  0.89860000  0.94050000  1.0
  O  O688  1  0.63290000  0.14910000  0.04470000  1.0
  O  O689  1  0.56670000  0.71490000  0.95890000  1.0
  O  O690  1  0.61760000  0.72770000  0.07650000  1.0
  O  O691  1  0.67990000  0.61750000  0.08220000  1.0
  O  O692  1  0.72740000  0.74910000  0.13680000  1.0
  O  O693  1  0.59960000  0.94460000  0.06510000  1.0
  O  O694  1  0.07000000  0.36110000  0.41220000  1.0
  O  O695  1  0.56220000  0.80940000  0.01380000  1.0
  O  O696  1  0.64030000  0.97150000  0.93530000  1.0
  O  O697  1  0.64690000  0.06210000  0.11770000  1.0
  O  O698  1  0.61460000  0.15510000  0.64640000  1.0
  O  O699  1  0.77820000  0.84300000  0.16050000  1.0
  O  O700  1  0.63100000  0.51590000  0.96990000  1.0
  O  O701  1  0.03130000  0.45120000  0.38990000  1.0
  O  O702  1  0.58360000  0.54360000  0.91700000  1.0
  O  O703  1  0.62980000  0.00800000  0.66240000  1.0
  O  O704  1  0.78600000  0.57010000  0.86850000  1.0
  O  O705  1  0.78260000  0.67480000  0.93260000  1.0
  O  O706  1  0.85610000  0.41660000  0.00720000  1.0
  O  O707  1  0.90920000  0.57010000  0.07040000  1.0
  O  O708  1  0.80350000  0.46240000  0.95040000  1.0
  O  O709  1  0.88000000  0.85280000  0.97310000  1.0
  O  O710  1  0.82780000  0.81170000  0.98600000  1.0
  O  O711  1  0.89150000  0.75490000  0.05500000  1.0
  O  O712  1  0.82130000  0.78940000  0.85930000  1.0
  O  O713  1  0.91380000  0.46360000  0.00750000  1.0
  O  O714  1  0.80700000  0.39850000  0.89020000  1.0
  O  O715  1  0.84130000  0.70530000  0.05130000  1.0
  O  O716  1  0.79990000  0.57680000  0.00090000  1.0
  O  O717  1  0.73080000  0.52300000  0.87240000  1.0
  O  O718  1  0.83360000  0.61150000  0.86240000  1.0
  O  O719  1  0.95250000  0.60140000  0.05950000  1.0
  O  O720  1  0.86710000  0.35090000  0.95530000  1.0
  O  O721  1  0.93330000  0.78510000  0.04110000  1.0
  O  O722  1  0.88240000  0.77230000  0.92350000  1.0
  O  O723  1  0.82010000  0.88250000  0.91780000  1.0
  O  O724  1  0.77260000  0.75090000  0.86320000  1.0
  O  O725  1  0.90040000  0.55540000  0.93490000  1.0
  O  O726  1  0.43000000  0.13890000  0.58780000  1.0
  O  O727  1  0.93780000  0.69060000  0.98620000  1.0
  O  O728  1  0.85970000  0.52850000  0.06470000  1.0
  O  O729  1  0.85310000  0.43790000  0.88230000  1.0
  O  O730  1  0.88540000  0.34490000  0.35360000  1.0
  O  O731  1  0.72180000  0.65700000  0.83950000  1.0
  O  O732  1  0.86900000  0.98410000  0.03010000  1.0
  O  O733  1  0.46870000  0.04880000  0.61010000  1.0
  O  O734  1  0.91640000  0.95640000  0.08300000  1.0
  O  O735  1  0.87020000  0.49200000  0.33760000  1.0
  O  O736  1  0.28600000  0.07010000  0.86850000  1.0
  O  O737  1  0.28260000  0.17480000  0.93260000  1.0
  O  O738  1  0.35610000  0.91660000  0.00720000  1.0
  O  O739  1  0.40920000  0.07010000  0.07040000  1.0
  O  O740  1  0.30350000  0.96240000  0.95040000  1.0
  O  O741  1  0.38000000  0.35280000  0.97310000  1.0
  O  O742  1  0.32780000  0.31170000  0.98600000  1.0
  O  O743  1  0.39150000  0.25490000  0.05500000  1.0
  O  O744  1  0.32130000  0.28940000  0.85930000  1.0
  O  O745  1  0.41380000  0.96360000  0.00750000  1.0
  O  O746  1  0.30700000  0.89850000  0.89020000  1.0
  O  O747  1  0.34130000  0.20530000  0.05130000  1.0
  O  O748  1  0.29990000  0.07680000  0.00090000  1.0
  O  O749  1  0.23080000  0.02300000  0.87240000  1.0
  O  O750  1  0.33360000  0.11150000  0.86240000  1.0
  O  O751  1  0.45250000  0.10140000  0.05950000  1.0
  O  O752  1  0.36710000  0.85090000  0.95530000  1.0
  O  O753  1  0.43330000  0.28510000  0.04110000  1.0
  O  O754  1  0.38240000  0.27230000  0.92350000  1.0
  O  O755  1  0.32010000  0.38250000  0.91780000  1.0
  O  O756  1  0.27260000  0.25090000  0.86320000  1.0
  O  O757  1  0.40040000  0.05540000  0.93490000  1.0
  O  O758  1  0.93000000  0.63890000  0.58780000  1.0
  O  O759  1  0.43780000  0.19060000  0.98620000  1.0
  O  O760  1  0.35970000  0.02850000  0.06470000  1.0
  O  O761  1  0.35310000  0.93790000  0.88230000  1.0
  O  O762  1  0.38540000  0.84490000  0.35360000  1.0
  O  O763  1  0.22180000  0.15700000  0.83950000  1.0
  O  O764  1  0.36900000  0.48410000  0.03010000  1.0
  O  O765  1  0.96870000  0.54880000  0.61010000  1.0
  O  O766  1  0.41640000  0.45640000  0.08300000  1.0
  O  O767  1  0.37020000  0.99200000  0.33760000  1.0
  O  O768  1  0.78600000  0.42990000  0.36850000  1.0
  O  O769  1  0.78260000  0.32520000  0.43260000  1.0
  O  O770  1  0.85610000  0.58340000  0.50720000  1.0
  O  O771  1  0.90920000  0.42990000  0.57040000  1.0
  O  O772  1  0.80350000  0.53760000  0.45040000  1.0
  O  O773  1  0.88000000  0.14720000  0.47310000  1.0
  O  O774  1  0.82780000  0.18830000  0.48600000  1.0
  O  O775  1  0.89150000  0.24510000  0.55500000  1.0
  O  O776  1  0.82130000  0.21060000  0.35930000  1.0
  O  O777  1  0.91380000  0.53640000  0.50750000  1.0
  O  O778  1  0.80700000  0.60150000  0.39020000  1.0
  O  O779  1  0.84130000  0.29470000  0.55130000  1.0
  O  O780  1  0.79990000  0.42320000  0.50090000  1.0
  O  O781  1  0.73080000  0.47700000  0.37240000  1.0
  O  O782  1  0.83360000  0.38850000  0.36240000  1.0
  O  O783  1  0.95250000  0.39860000  0.55950000  1.0
  O  O784  1  0.86710000  0.64910000  0.45530000  1.0
  O  O785  1  0.93330000  0.21490000  0.54110000  1.0
  O  O786  1  0.88240000  0.22770000  0.42350000  1.0
  O  O787  1  0.82010000  0.11750000  0.41780000  1.0
  O  O788  1  0.77260000  0.24910000  0.36320000  1.0
  O  O789  1  0.90040000  0.44460000  0.43490000  1.0
  O  O790  1  0.43000000  0.86110000  0.08780000  1.0
  O  O791  1  0.93780000  0.30940000  0.48620000  1.0
  O  O792  1  0.85970000  0.47150000  0.56470000  1.0
  O  O793  1  0.85310000  0.56210000  0.38230000  1.0
  O  O794  1  0.88540000  0.65510000  0.85360000  1.0
  O  O795  1  0.72180000  0.34300000  0.33950000  1.0
  O  O796  1  0.86900000  0.01590000  0.53010000  1.0
  O  O797  1  0.46870000  0.95120000  0.11010000  1.0
  O  O798  1  0.91640000  0.04360000  0.58300000  1.0
  O  O799  1  0.87020000  0.50800000  0.83760000  1.0
  O  O800  1  0.28600000  0.92990000  0.36850000  1.0
  O  O801  1  0.28260000  0.82520000  0.43260000  1.0
  O  O802  1  0.35610000  0.08340000  0.50720000  1.0
  O  O803  1  0.40920000  0.92990000  0.57040000  1.0
  O  O804  1  0.30350000  0.03760000  0.45040000  1.0
  O  O805  1  0.38000000  0.64720000  0.47310000  1.0
  O  O806  1  0.32780000  0.68830000  0.48600000  1.0
  O  O807  1  0.39150000  0.74510000  0.55500000  1.0
  O  O808  1  0.32130000  0.71060000  0.35930000  1.0
  O  O809  1  0.41380000  0.03640000  0.50750000  1.0
  O  O810  1  0.30700000  0.10150000  0.39020000  1.0
  O  O811  1  0.34130000  0.79470000  0.55130000  1.0
  O  O812  1  0.29990000  0.92320000  0.50090000  1.0
  O  O813  1  0.23080000  0.97700000  0.37240000  1.0
  O  O814  1  0.33360000  0.88850000  0.36240000  1.0
  O  O815  1  0.45250000  0.89860000  0.55950000  1.0
  O  O816  1  0.36710000  0.14910000  0.45530000  1.0
  O  O817  1  0.43330000  0.71490000  0.54110000  1.0
  O  O818  1  0.38240000  0.72770000  0.42350000  1.0
  O  O819  1  0.32010000  0.61750000  0.41780000  1.0
  O  O820  1  0.27260000  0.74910000  0.36320000  1.0
  O  O821  1  0.40040000  0.94460000  0.43490000  1.0
  O  O822  1  0.93000000  0.36110000  0.08780000  1.0
  O  O823  1  0.43780000  0.80940000  0.48620000  1.0
  O  O824  1  0.35970000  0.97150000  0.56470000  1.0
  O  O825  1  0.35310000  0.06210000  0.38230000  1.0
  O  O826  1  0.38540000  0.15510000  0.85360000  1.0
  O  O827  1  0.22180000  0.84300000  0.33950000  1.0
  O  O828  1  0.36900000  0.51590000  0.53010000  1.0
  O  O829  1  0.96870000  0.45120000  0.11010000  1.0
  O  O830  1  0.41640000  0.54360000  0.58300000  1.0
  O  O831  1  0.37020000  0.00800000  0.83760000  1.0
