# generated using pymatgen
data_Zr3H26(C21O11)2
_symmetry_space_group_name_H-M   'P 1'
_cell_length_a   26.85140000
_cell_length_b   26.85140000
_cell_length_c   26.85140000
_cell_angle_alpha   90.00000000
_cell_angle_beta   90.00000000
_cell_angle_gamma   90.00000000
_symmetry_Int_Tables_number   1
_chemical_formula_structural   Zr3H26(C21O11)2
_chemical_formula_sum   'Zr24 H208 C336 O176'
_cell_volume   19359.79715738
_cell_formula_units_Z   8
loop_
 _symmetry_equiv_pos_site_id
 _symmetry_equiv_pos_as_xyz
  1  'x, y, z'
loop_
 _atom_site_type_symbol
 _atom_site_label
 _atom_site_symmetry_multiplicity
 _atom_site_fract_x
 _atom_site_fract_y
 _atom_site_fract_z
 _atom_site_occupancy
  Zr  Zr0  1  0.00003000  0.08761000  0.00078000  1.0
  Zr  Zr1  1  0.91167000  0.99998000  0.99970000  1.0
  Zr  Zr2  1  0.08803000  0.99925000  0.00012000  1.0
  Zr  Zr3  1  0.00002000  0.00050000  0.91143000  1.0
  Zr  Zr4  1  0.99981000  0.99866000  0.08837000  1.0
  Zr  Zr5  1  0.99937000  0.91142000  0.99920000  1.0
  Zr  Zr6  1  0.49961000  0.58735000  0.00067000  1.0
  Zr  Zr7  1  0.41154000  0.49899000  0.00001000  1.0
  Zr  Zr8  1  0.58765000  0.49870000  0.99957000  1.0
  Zr  Zr9  1  0.49942000  0.49991000  0.91134000  1.0
  Zr  Zr10  1  0.49982000  0.49812000  0.08826000  1.0
  Zr  Zr11  1  0.49941000  0.41092000  0.99918000  1.0
  Zr  Zr12  1  0.99995000  0.58840000  0.49953000  1.0
  Zr  Zr13  1  0.91156000  0.50065000  0.49967000  1.0
  Zr  Zr14  1  0.08784000  0.50024000  0.49977000  1.0
  Zr  Zr15  1  0.99975000  0.50038000  0.41139000  1.0
  Zr  Zr16  1  0.99966000  0.50041000  0.58816000  1.0
  Zr  Zr17  1  0.99927000  0.41193000  0.49954000  1.0
  Zr  Zr18  1  0.49925000  0.08776000  0.49899000  1.0
  Zr  Zr19  1  0.41185000  0.99883000  0.49982000  1.0
  Zr  Zr20  1  0.58813000  0.99979000  0.49912000  1.0
  Zr  Zr21  1  0.49971000  0.99944000  0.41114000  1.0
  Zr  Zr22  1  0.50044000  0.00004000  0.58793000  1.0
  Zr  Zr23  1  0.50026000  0.91128000  0.49957000  1.0
  H  H24  1  0.93387000  0.06664000  0.93412000  1.0
  H  H25  1  0.06625000  0.06506000  0.06666000  1.0
  H  H26  1  0.06572000  0.93355000  0.93338000  1.0
  H  H27  1  0.93309000  0.93320000  0.06554000  1.0
  H  H28  1  0.43340000  0.56561000  0.93404000  1.0
  H  H29  1  0.56597000  0.56428000  0.06649000  1.0
  H  H30  1  0.56523000  0.43316000  0.93276000  1.0
  H  H31  1  0.43344000  0.43244000  0.06598000  1.0
  H  H32  1  0.93377000  0.56693000  0.43339000  1.0
  H  H33  1  0.06608000  0.56650000  0.56572000  1.0
  H  H34  1  0.06558000  0.43382000  0.43362000  1.0
  H  H35  1  0.93332000  0.43438000  0.56613000  1.0
  H  H36  1  0.43333000  0.06526000  0.43307000  1.0
  H  H37  1  0.56610000  0.06650000  0.56480000  1.0
  H  H38  1  0.56586000  0.93328000  0.43305000  1.0
  H  H39  1  0.43462000  0.93332000  0.56654000  1.0
  H  H40  1  0.21565000  0.10313000  0.00626000  1.0
  H  H41  1  0.28048000  0.16657000  0.00480000  1.0
  H  H42  1  0.16954000  0.28066000  0.98593000  1.0
  H  H43  1  0.31613000  0.23209000  0.05140000  1.0
  H  H44  1  0.29961000  0.38190000  0.94485000  1.0
  H  H45  1  0.23555000  0.31731000  0.94188000  1.0
  H  H46  1  0.08745000  0.25704000  0.97946000  1.0
  H  H47  1  0.40663000  0.32621000  0.07329000  1.0
  H  H48  1  0.21577000  0.60316000  0.50011000  1.0
  H  H49  1  0.28093000  0.66628000  0.49950000  1.0
  H  H50  1  0.17014000  0.78182000  0.49359000  1.0
  H  H51  1  0.31877000  0.72974000  0.54905000  1.0
  H  H52  1  0.29868000  0.88361000  0.44910000  1.0
  H  H53  1  0.23429000  0.81941000  0.44632000  1.0
  H  H54  1  0.08764000  0.75923000  0.49104000  1.0
  H  H55  1  0.40974000  0.82304000  0.57208000  1.0
  H  H56  1  0.88199000  0.79961000  0.05015000  1.0
  H  H57  1  0.81770000  0.73599000  0.05251000  1.0
  H  H58  1  0.73440000  0.81581000  0.94058000  1.0
  H  H59  1  0.77949000  0.66994000  0.02050000  1.0
  H  H60  1  0.60567000  0.71180000  0.97566000  1.0
  H  H61  1  0.66851000  0.77687000  0.97514000  1.0
  H  H62  1  0.76603000  0.89112000  0.91313000  1.0
  H  H63  1  0.69295000  0.57967000  0.05492000  1.0
  H  H64  1  0.89496000  0.28511000  0.48607000  1.0
  H  H65  1  0.83143000  0.22029000  0.48579000  1.0
  H  H66  1  0.71745000  0.33085000  0.50709000  1.0
  H  H67  1  0.76496000  0.18464000  0.43960000  1.0
  H  H68  1  0.61760000  0.19983000  0.54953000  1.0
  H  H69  1  0.68171000  0.26421000  0.55128000  1.0
  H  H70  1  0.74111000  0.41283000  0.51500000  1.0
  H  H71  1  0.67088000  0.09313000  0.41995000  1.0
  H  H72  1  0.78421000  0.10326000  0.99954000  1.0
  H  H73  1  0.71926000  0.16655000  0.99988000  1.0
  H  H74  1  0.83036000  0.28174000  0.00760000  1.0
  H  H75  1  0.68184000  0.22984000  0.95048000  1.0
  H  H76  1  0.70114000  0.38389000  0.05023000  1.0
  H  H77  1  0.76569000  0.31990000  0.05340000  1.0
  H  H78  1  0.91285000  0.25872000  0.01103000  1.0
  H  H79  1  0.59059000  0.32280000  0.92708000  1.0
  H  H80  1  0.78456000  0.60455000  0.49315000  1.0
  H  H81  1  0.71976000  0.66793000  0.49395000  1.0
  H  H82  1  0.83053000  0.78210000  0.51337000  1.0
  H  H83  1  0.68458000  0.73350000  0.44672000  1.0
  H  H84  1  0.69973000  0.88275000  0.55424000  1.0
  H  H85  1  0.76402000  0.81840000  0.55730000  1.0
  H  H86  1  0.91262000  0.75848000  0.52041000  1.0
  H  H87  1  0.59366000  0.82733000  0.42482000  1.0
  H  H88  1  0.10985000  0.29195000  0.46340000  1.0
  H  H89  1  0.17391000  0.22791000  0.46187000  1.0
  H  H90  1  0.27298000  0.32414000  0.54362000  1.0
  H  H91  1  0.21639000  0.16888000  0.50574000  1.0
  H  H92  1  0.39495000  0.21400000  0.49941000  1.0
  H  H93  1  0.33238000  0.27934000  0.49958000  1.0
  H  H94  1  0.24488000  0.40287000  0.56426000  1.0
  H  H95  1  0.29058000  0.06890000  0.47638000  1.0
  H  H96  1  0.12127000  0.80303000  0.94209000  1.0
  H  H97  1  0.18606000  0.73957000  0.94025000  1.0
  H  H98  1  0.25930000  0.81056000  0.06440000  1.0
  H  H99  1  0.22120000  0.67091000  0.97243000  1.0
  H  H100  1  0.39169000  0.71057000  0.03041000  1.0
  H  H101  1  0.32846000  0.77546000  0.03039000  1.0
  H  H102  1  0.22439000  0.88290000  0.09554000  1.0
  H  H103  1  0.31040000  0.58179000  0.94042000  1.0
  H  H104  1  0.95871000  0.20618000  0.11108000  1.0
  H  H105  1  0.95635000  0.27047000  0.17494000  1.0
  H  H106  1  0.03706000  0.17462000  0.27522000  1.0
  H  H107  1  0.00023000  0.32974000  0.21757000  1.0
  H  H108  1  0.99278000  0.28503000  0.39627000  1.0
  H  H109  1  0.99230000  0.21952000  0.33382000  1.0
  H  H110  1  0.05812000  0.09585000  0.24769000  1.0
  H  H111  1  0.96880000  0.42840000  0.29098000  1.0
  H  H112  1  0.53742000  0.38850000  0.79195000  1.0
  H  H113  1  0.53882000  0.32428000  0.72804000  1.0
  H  H114  1  0.45143000  0.22795000  0.82214000  1.0
  H  H115  1  0.49605000  0.28262000  0.66772000  1.0
  H  H116  1  0.49562000  0.10426000  0.71439000  1.0
  H  H117  1  0.49506000  0.16733000  0.77928000  1.0
  H  H118  1  0.42969000  0.25678000  0.90033000  1.0
  H  H119  1  0.53058000  0.20693000  0.57175000  1.0
  H  H120  1  0.05157000  0.88209000  0.79962000  1.0
  H  H121  1  0.05367000  0.81737000  0.73638000  1.0
  H  H122  1  0.93834000  0.73707000  0.81445000  1.0
  H  H123  1  0.02110000  0.78004000  0.66997000  1.0
  H  H124  1  0.97362000  0.60698000  0.71219000  1.0
  H  H125  1  0.97307000  0.67021000  0.77695000  1.0
  H  H126  1  0.91033000  0.76965000  0.88922000  1.0
  H  H127  1  0.05632000  0.69241000  0.58141000  1.0
  H  H128  1  0.45536000  0.70428000  0.11244000  1.0
  H  H129  1  0.45308000  0.76839000  0.17648000  1.0
  H  H130  1  0.54009000  0.67500000  0.27383000  1.0
  H  H131  1  0.49605000  0.82896000  0.21763000  1.0
  H  H132  1  0.49723000  0.78409000  0.39644000  1.0
  H  H133  1  0.49660000  0.71857000  0.33402000  1.0
  H  H134  1  0.56243000  0.59686000  0.24549000  1.0
  H  H135  1  0.46425000  0.92663000  0.29288000  1.0
  H  H136  1  0.01556000  0.89422000  0.21397000  1.0
  H  H137  1  0.01544000  0.83082000  0.27881000  1.0
  H  H138  1  0.98798000  0.71740000  0.16898000  1.0
  H  H139  1  0.06157000  0.76306000  0.31230000  1.0
  H  H140  1  0.94613000  0.61944000  0.30177000  1.0
  H  H141  1  0.94413000  0.68356000  0.23721000  1.0
  H  H142  1  0.97853000  0.74132000  0.08716000  1.0
  H  H143  1  0.08078000  0.66843000  0.40345000  1.0
  H  H144  1  0.50450000  0.60409000  0.78459000  1.0
  H  H145  1  0.50477000  0.66768000  0.71990000  1.0
  H  H146  1  0.50247000  0.78251000  0.83157000  1.0
  H  H147  1  0.55399000  0.73039000  0.68100000  1.0
  H  H148  1  0.45715000  0.88582000  0.70374000  1.0
  H  H149  1  0.45534000  0.82183000  0.76834000  1.0
  H  H150  1  0.50058000  0.75920000  0.91403000  1.0
  H  H151  1  0.57602000  0.82332000  0.58950000  1.0
  H  H152  1  0.50137000  0.39438000  0.21490000  1.0
  H  H153  1  0.50116000  0.33077000  0.27954000  1.0
  H  H154  1  0.50418000  0.21596000  0.16788000  1.0
  H  H155  1  0.55251000  0.26860000  0.31823000  1.0
  H  H156  1  0.45591000  0.11304000  0.29515000  1.0
  H  H157  1  0.45445000  0.17697000  0.23043000  1.0
  H  H158  1  0.50450000  0.23923000  0.08537000  1.0
  H  H159  1  0.57471000  0.17549000  0.40936000  1.0
  H  H160  1  0.00848000  0.10481000  0.78501000  1.0
  H  H161  1  0.00814000  0.16828000  0.72029000  1.0
  H  H162  1  0.99768000  0.28297000  0.83169000  1.0
  H  H163  1  0.05511000  0.23224000  0.68217000  1.0
  H  H164  1  0.95363000  0.38500000  0.70262000  1.0
  H  H165  1  0.95220000  0.32110000  0.76731000  1.0
  H  H166  1  0.99331000  0.25955000  0.91405000  1.0
  H  H167  1  0.07548000  0.32520000  0.59021000  1.0
  H  H168  1  0.10352000  0.00285000  0.21614000  1.0
  H  H169  1  0.16723000  0.00283000  0.28112000  1.0
  H  H170  1  0.28175000  0.98870000  0.17028000  1.0
  H  H171  1  0.23777000  0.05797000  0.31111000  1.0
  H  H172  1  0.37650000  0.93637000  0.30523000  1.0
  H  H173  1  0.31216000  0.93486000  0.24048000  1.0
  H  H174  1  0.25872000  0.98736000  0.08759000  1.0
  H  H175  1  0.33546000  0.07879000  0.39918000  1.0
  H  H176  1  0.39541000  0.50589000  0.78433000  1.0
  H  H177  1  0.33206000  0.50487000  0.71950000  1.0
  H  H178  1  0.21785000  0.48576000  0.83028000  1.0
  H  H179  1  0.26687000  0.55135000  0.68357000  1.0
  H  H180  1  0.11660000  0.44544000  0.69977000  1.0
  H  H181  1  0.18095000  0.44233000  0.76406000  1.0
  H  H182  1  0.24145000  0.47894000  0.91238000  1.0
  H  H183  1  0.17328000  0.57342000  0.59258000  1.0
  H  H184  1  0.89663000  0.99425000  0.78364000  1.0
  H  H185  1  0.83323000  0.99332000  0.71865000  1.0
  H  H186  1  0.71806000  0.00124000  0.82964000  1.0
  H  H187  1  0.77203000  0.04538000  0.67863000  1.0
  H  H188  1  0.61402000  0.95324000  0.70329000  1.0
  H  H189  1  0.67812000  0.95090000  0.76786000  1.0
  H  H190  1  0.74097000  0.00404000  0.91217000  1.0
  H  H191  1  0.67921000  0.06981000  0.58789000  1.0
  H  H192  1  0.60386000  0.50546000  0.21513000  1.0
  H  H193  1  0.66729000  0.50555000  0.27996000  1.0
  H  H194  1  0.78138000  0.48435000  0.16948000  1.0
  H  H195  1  0.73350000  0.55321000  0.31454000  1.0
  H  H196  1  0.88119000  0.44345000  0.30128000  1.0
  H  H197  1  0.81703000  0.44039000  0.23689000  1.0
  H  H198  1  0.75775000  0.47670000  0.08741000  1.0
  H  H199  1  0.82751000  0.57494000  0.40558000  1.0
  H  H200  1  0.11952000  0.05751000  0.80165000  1.0
  H  H201  1  0.18444000  0.06018000  0.73856000  1.0
  H  H202  1  0.26435000  0.94395000  0.81568000  1.0
  H  H203  1  0.22214000  0.02906000  0.67191000  1.0
  H  H204  1  0.39413000  0.97677000  0.71279000  1.0
  H  H205  1  0.33128000  0.97731000  0.77790000  1.0
  H  H206  1  0.23168000  0.91530000  0.89003000  1.0
  H  H207  1  0.31085000  0.06175000  0.58293000  1.0
  H  H208  1  0.39593000  0.49335000  0.21583000  1.0
  H  H209  1  0.33249000  0.49464000  0.28065000  1.0
  H  H210  1  0.21826000  0.51197000  0.16961000  1.0
  H  H211  1  0.26719000  0.44801000  0.31683000  1.0
  H  H212  1  0.11685000  0.55365000  0.29938000  1.0
  H  H213  1  0.18137000  0.55631000  0.23527000  1.0
  H  H214  1  0.24180000  0.51796000  0.08748000  1.0
  H  H215  1  0.17331000  0.42645000  0.40769000  1.0
  H  H216  1  0.89540000  0.99112000  0.21519000  1.0
  H  H217  1  0.83189000  0.99221000  0.27991000  1.0
  H  H218  1  0.71836000  0.01552000  0.16922000  1.0
  H  H219  1  0.76565000  0.94612000  0.31463000  1.0
  H  H220  1  0.61765000  0.05546000  0.30020000  1.0
  H  H221  1  0.68225000  0.05853000  0.23614000  1.0
  H  H222  1  0.74233000  0.02361000  0.08734000  1.0
  H  H223  1  0.67150000  0.92469000  0.40539000  1.0
  H  H224  1  0.61654000  0.55547000  0.79954000  1.0
  H  H225  1  0.68119000  0.55864000  0.73610000  1.0
  H  H226  1  0.76520000  0.44731000  0.81598000  1.0
  H  H227  1  0.71972000  0.52593000  0.67006000  1.0
  H  H228  1  0.89379000  0.48314000  0.71311000  1.0
  H  H229  1  0.83086000  0.48345000  0.77800000  1.0
  H  H230  1  0.73363000  0.41926000  0.89101000  1.0
  H  H231  1  0.80618000  0.55907000  0.57929000  1.0
  C  C232  1  0.11429000  0.11401000  0.99791000  1.0
  C  C233  1  0.88579000  0.11466000  0.00287000  1.0
  C  C234  1  0.00202000  0.11554000  0.88654000  1.0
  C  C235  1  0.99843000  0.11266000  0.11570000  1.0
  C  C236  1  0.88489000  0.88566000  0.99666000  1.0
  C  C237  1  0.11369000  0.88468000  0.00184000  1.0
  C  C238  1  0.88521000  0.99873000  0.88525000  1.0
  C  C239  1  0.88493000  0.00183000  0.11405000  1.0
  C  C240  1  0.11466000  0.99676000  0.11453000  1.0
  C  C241  1  0.11484000  0.00117000  0.88600000  1.0
  C  C242  1  0.99672000  0.88620000  0.88470000  1.0
  C  C243  1  0.00104000  0.88385000  0.11339000  1.0
  C  C244  1  0.61443000  0.61325000  0.99978000  1.0
  C  C245  1  0.38479000  0.61340000  0.00090000  1.0
  C  C246  1  0.50182000  0.61495000  0.88633000  1.0
  C  C247  1  0.49808000  0.61209000  0.11564000  1.0
  C  C248  1  0.38522000  0.38450000  0.99864000  1.0
  C  C249  1  0.61365000  0.38416000  0.99958000  1.0
  C  C250  1  0.38463000  0.49707000  0.88563000  1.0
  C  C251  1  0.38506000  0.50110000  0.11440000  1.0
  C  C252  1  0.61464000  0.49554000  0.11392000  1.0
  C  C253  1  0.61400000  0.50116000  0.88535000  1.0
  C  C254  1  0.49625000  0.38542000  0.88479000  1.0
  C  C255  1  0.50187000  0.38333000  0.11331000  1.0
  C  C256  1  0.11421000  0.61492000  0.49751000  1.0
  C  C257  1  0.88582000  0.61543000  0.50208000  1.0
  C  C258  1  0.00293000  0.61451000  0.38501000  1.0
  C  C259  1  0.99917000  0.61517000  0.61396000  1.0
  C  C260  1  0.88442000  0.38624000  0.49793000  1.0
  C  C261  1  0.11397000  0.38590000  0.50212000  1.0
  C  C262  1  0.88503000  0.49951000  0.38537000  1.0
  C  C263  1  0.88484000  0.50421000  0.61394000  1.0
  C  C264  1  0.11431000  0.49915000  0.61410000  1.0
  C  C265  1  0.11445000  0.50075000  0.38553000  1.0
  C  C266  1  0.99653000  0.38621000  0.38453000  1.0
  C  C267  1  0.00267000  0.38576000  0.61415000  1.0
  C  C268  1  0.61383000  0.11437000  0.49569000  1.0
  C  C269  1  0.38395000  0.11284000  0.50063000  1.0
  C  C270  1  0.50275000  0.11378000  0.38471000  1.0
  C  C271  1  0.49826000  0.11513000  0.61309000  1.0
  C  C272  1  0.38623000  0.88421000  0.49956000  1.0
  C  C273  1  0.61450000  0.88526000  0.50000000  1.0
  C  C274  1  0.38510000  0.99779000  0.38533000  1.0
  C  C275  1  0.38593000  0.00262000  0.61456000  1.0
  C  C276  1  0.61522000  0.99971000  0.61336000  1.0
  C  C277  1  0.61425000  0.00027000  0.38482000  1.0
  C  C278  1  0.49677000  0.88530000  0.38457000  1.0
  C  C279  1  0.50436000  0.88544000  0.61423000  1.0
  C  C280  1  0.15386000  0.15419000  0.99637000  1.0
  C  C281  1  0.20463000  0.14163000  0.00154000  1.0
  C  C282  1  0.24210000  0.17831000  0.00108000  1.0
  C  C283  1  0.23045000  0.22916000  0.99536000  1.0
  C  C284  1  0.17988000  0.24189000  0.98972000  1.0
  C  C285  1  0.14186000  0.20533000  0.99005000  1.0
  C  C286  1  0.27057000  0.26879000  0.99610000  1.0
  C  C287  1  0.31259000  0.26413000  0.02718000  1.0
  C  C288  1  0.34942000  0.30147000  0.02976000  1.0
  C  C289  1  0.34578000  0.34475000  0.99938000  1.0
  C  C290  1  0.30366000  0.34948000  0.96852000  1.0
  C  C291  1  0.26678000  0.31225000  0.96685000  1.0
  C  C292  1  0.15391000  0.65501000  0.49672000  1.0
  C  C293  1  0.20480000  0.64193000  0.49852000  1.0
  C  C294  1  0.24249000  0.67836000  0.49847000  1.0
  C  C295  1  0.23094000  0.72948000  0.49642000  1.0
  C  C296  1  0.18029000  0.74282000  0.49438000  1.0
  C  C297  1  0.14203000  0.70654000  0.49454000  1.0
  C  C298  1  0.27128000  0.76880000  0.49713000  1.0
  C  C299  1  0.31446000  0.76277000  0.52632000  1.0
  C  C300  1  0.35147000  0.79996000  0.52902000  1.0
  C  C301  1  0.34684000  0.84437000  0.50042000  1.0
  C  C302  1  0.30357000  0.85033000  0.47138000  1.0
  C  C303  1  0.26650000  0.81333000  0.46978000  1.0
  C  C304  1  0.84524000  0.84614000  0.99578000  1.0
  C  C305  1  0.84990000  0.80367000  0.02603000  1.0
  C  C306  1  0.81281000  0.76669000  0.02694000  1.0
  C  C307  1  0.76998000  0.76986000  0.99649000  1.0
  C  C308  1  0.76583000  0.81225000  0.96550000  1.0
  C  C309  1  0.80255000  0.85026000  0.96532000  1.0
  C  C310  1  0.73016000  0.72942000  0.99724000  1.0
  C  C311  1  0.74165000  0.68008000  0.01122000  1.0
  C  C312  1  0.70486000  0.64279000  0.01498000  1.0
  C  C313  1  0.65470000  0.65282000  0.00080000  1.0
  C  C314  1  0.64333000  0.70205000  0.98631000  1.0
  C  C315  1  0.68001000  0.73960000  0.98514000  1.0
  C  C316  1  0.84402000  0.34673000  0.49742000  1.0
  C  C317  1  0.85646000  0.29606000  0.49089000  1.0
  C  C318  1  0.81972000  0.25858000  0.49035000  1.0
  C  C319  1  0.76887000  0.27006000  0.49648000  1.0
  C  C320  1  0.75622000  0.32057000  0.50306000  1.0
  C  C321  1  0.79283000  0.35861000  0.50363000  1.0
  C  C322  1  0.72921000  0.22983000  0.49581000  1.0
  C  C323  1  0.73334000  0.18795000  0.46439000  1.0
  C  C324  1  0.69606000  0.15088000  0.46245000  1.0
  C  C325  1  0.65341000  0.15414000  0.49377000  1.0
  C  C326  1  0.64929000  0.19612000  0.52492000  1.0
  C  C327  1  0.68634000  0.23321000  0.52595000  1.0
  C  C328  1  0.84621000  0.15488000  0.00385000  1.0
  C  C329  1  0.79530000  0.14198000  0.00149000  1.0
  C  C330  1  0.75772000  0.17854000  0.00135000  1.0
  C  C331  1  0.76937000  0.22963000  0.00371000  1.0
  C  C332  1  0.82008000  0.24278000  0.00649000  1.0
  C  C333  1  0.85825000  0.20634000  0.00658000  1.0
  C  C334  1  0.72905000  0.26904000  0.00256000  1.0
  C  C335  1  0.68599000  0.26291000  0.97318000  1.0
  C  C336  1  0.64887000  0.29999000  0.97029000  1.0
  C  C337  1  0.65322000  0.34445000  0.99885000  1.0
  C  C338  1  0.69642000  0.35058000  0.02798000  1.0
  C  C339  1  0.73361000  0.31368000  0.02981000  1.0
  C  C340  1  0.84631000  0.65562000  0.50334000  1.0
  C  C341  1  0.79557000  0.64305000  0.49784000  1.0
  C  C342  1  0.75811000  0.67969000  0.49791000  1.0
  C  C343  1  0.76971000  0.73053000  0.50359000  1.0
  C  C344  1  0.82024000  0.74331000  0.50958000  1.0
  C  C345  1  0.85827000  0.70676000  0.50961000  1.0
  C  C346  1  0.72956000  0.77008000  0.50258000  1.0
  C  C347  1  0.68781000  0.76544000  0.47112000  1.0
  C  C348  1  0.65084000  0.80264000  0.46848000  1.0
  C  C349  1  0.65409000  0.84571000  0.49918000  1.0
  C  C350  1  0.69598000  0.85046000  0.53034000  1.0
  C  C351  1  0.73300000  0.81339000  0.53207000  1.0
  C  C352  1  0.15386000  0.34643000  0.50323000  1.0
  C  C353  1  0.14521000  0.29966000  0.48123000  1.0
  C  C354  1  0.18219000  0.26258000  0.48064000  1.0
  C  C355  1  0.22921000  0.27037000  0.50281000  1.0
  C  C356  1  0.23779000  0.31708000  0.52528000  1.0
  C  C357  1  0.20092000  0.35488000  0.52554000  1.0
  C  C358  1  0.26868000  0.22990000  0.50267000  1.0
  C  C359  1  0.25527000  0.17928000  0.50355000  1.0
  C  C360  1  0.29083000  0.14081000  0.50081000  1.0
  C  C361  1  0.34299000  0.15206000  0.50018000  1.0
  C  C362  1  0.35615000  0.20306000  0.50021000  1.0
  C  C363  1  0.31993000  0.24105000  0.50096000  1.0
  C  C364  1  0.15314000  0.84504000  0.00281000  1.0
  C  C365  1  0.15126000  0.80514000  0.96900000  1.0
  C  C366  1  0.18857000  0.76832000  0.96833000  1.0
  C  C367  1  0.22873000  0.76921000  0.00236000  1.0
  C  C368  1  0.23002000  0.80899000  0.03679000  1.0
  C  C369  1  0.19307000  0.84672000  0.03698000  1.0
  C  C370  1  0.26871000  0.72903000  0.00194000  1.0
  C  C371  1  0.25834000  0.68050000  0.98473000  1.0
  C  C372  1  0.29543000  0.64346000  0.98164000  1.0
  C  C373  1  0.34454000  0.65290000  0.99945000  1.0
  C  C374  1  0.35480000  0.70135000  0.01698000  1.0
  C  C375  1  0.31791000  0.73870000  0.01776000  1.0
  C  C376  1  0.99809000  0.15192000  0.15577000  1.0
  C  C377  1  0.97603000  0.19859000  0.14671000  1.0
  C  C378  1  0.97499000  0.23580000  0.18354000  1.0
  C  C379  1  0.99671000  0.22819000  0.23079000  1.0
  C  C380  1  0.01907000  0.18152000  0.23984000  1.0
  C  C381  1  0.01979000  0.14361000  0.20313000  1.0
  C  C382  1  0.99641000  0.26882000  0.27004000  1.0
  C  C383  1  0.99785000  0.31942000  0.25646000  1.0
  C  C384  1  0.99552000  0.35790000  0.29203000  1.0
  C  C385  1  0.99468000  0.34671000  0.34406000  1.0
  C  C386  1  0.99384000  0.29581000  0.35743000  1.0
  C  C387  1  0.99422000  0.25777000  0.32130000  1.0
  C  C388  1  0.49483000  0.34573000  0.84529000  1.0
  C  C389  1  0.51832000  0.35371000  0.79915000  1.0
  C  C390  1  0.51883000  0.31666000  0.76217000  1.0
  C  C391  1  0.49506000  0.27035000  0.76947000  1.0
  C  C392  1  0.47102000  0.26253000  0.81552000  1.0
  C  C393  1  0.47091000  0.29943000  0.85325000  1.0
  C  C394  1  0.49536000  0.23071000  0.72926000  1.0
  C  C395  1  0.49662000  0.24379000  0.67852000  1.0
  C  C396  1  0.49979000  0.20777000  0.64056000  1.0
  C  C397  1  0.49851000  0.15588000  0.65227000  1.0
  C  C398  1  0.49631000  0.14300000  0.70324000  1.0
  C  C399  1  0.49528000  0.17952000  0.74088000  1.0
  C  C400  1  0.99543000  0.84679000  0.84515000  1.0
  C  C401  1  0.02661000  0.85061000  0.80331000  1.0
  C  C402  1  0.02739000  0.81330000  0.76660000  1.0
  C  C403  1  0.99589000  0.77123000  0.76947000  1.0
  C  C404  1  0.96400000  0.76794000  0.81122000  1.0
  C  C405  1  0.96394000  0.80483000  0.84899000  1.0
  C  C406  1  0.99652000  0.73125000  0.72936000  1.0
  C  C407  1  0.01122000  0.74236000  0.68019000  1.0
  C  C408  1  0.01505000  0.70535000  0.64323000  1.0
  C  C409  1  0.00012000  0.65545000  0.65337000  1.0
  C  C410  1  0.98485000  0.64447000  0.70242000  1.0
  C  C411  1  0.98366000  0.68134000  0.73973000  1.0
  C  C412  1  0.49781000  0.65125000  0.15575000  1.0
  C  C413  1  0.47406000  0.69722000  0.14748000  1.0
  C  C414  1  0.47308000  0.73433000  0.18440000  1.0
  C  C415  1  0.49664000  0.72736000  0.23087000  1.0
  C  C416  1  0.52068000  0.68138000  0.23909000  1.0
  C  C417  1  0.52128000  0.64353000  0.20233000  1.0
  C  C418  1  0.49646000  0.76795000  0.27014000  1.0
  C  C419  1  0.49556000  0.81856000  0.25657000  1.0
  C  C420  1  0.49315000  0.85694000  0.29222000  1.0
  C  C421  1  0.49476000  0.84573000  0.34423000  1.0
  C  C422  1  0.49630000  0.79486000  0.35759000  1.0
  C  C423  1  0.49665000  0.75685000  0.32145000  1.0
  C  C424  1  0.00124000  0.84351000  0.15275000  1.0
  C  C425  1  0.00930000  0.85587000  0.20319000  1.0
  C  C426  1  0.00961000  0.81923000  0.24064000  1.0
  C  C427  1  0.00170000  0.76864000  0.22931000  1.0
  C  C428  1  0.99347000  0.75605000  0.17905000  1.0
  C  C429  1  0.99311000  0.79260000  0.14102000  1.0
  C  C430  1  0.00238000  0.72917000  0.26951000  1.0
  C  C431  1  0.03550000  0.73238000  0.31011000  1.0
  C  C432  1  0.03747000  0.69523000  0.34719000  1.0
  C  C433  1  0.00451000  0.65386000  0.34528000  1.0
  C  C434  1  0.97174000  0.65049000  0.30449000  1.0
  C  C435  1  0.97064000  0.68741000  0.26733000  1.0
  C  C436  1  0.50270000  0.65547000  0.84691000  1.0
  C  C437  1  0.50397000  0.64280000  0.79588000  1.0
  C  C438  1  0.50442000  0.67954000  0.75843000  1.0
  C  C439  1  0.50348000  0.73064000  0.77027000  1.0
  C  C440  1  0.50231000  0.74358000  0.82112000  1.0
  C  C441  1  0.50198000  0.70695000  0.85916000  1.0
  C  C442  1  0.50414000  0.77025000  0.73001000  1.0
  C  C443  1  0.53198000  0.76380000  0.68597000  1.0
  C  C444  1  0.53418000  0.80093000  0.64878000  1.0
  C  C445  1  0.50641000  0.84582000  0.65404000  1.0
  C  C446  1  0.47885000  0.85225000  0.69826000  1.0
  C  C447  1  0.47778000  0.81532000  0.73549000  1.0
  C  C448  1  0.50248000  0.34292000  0.15260000  1.0
  C  C449  1  0.50199000  0.35567000  0.20360000  1.0
  C  C450  1  0.50209000  0.31899000  0.24100000  1.0
  C  C451  1  0.50248000  0.26796000  0.22902000  1.0
  C  C452  1  0.50299000  0.25490000  0.17825000  1.0
  C  C453  1  0.50315000  0.29147000  0.14026000  1.0
  C  C454  1  0.50293000  0.22852000  0.26916000  1.0
  C  C455  1  0.53057000  0.23514000  0.31324000  1.0
  C  C456  1  0.53269000  0.19806000  0.35036000  1.0
  C  C457  1  0.50490000  0.15324000  0.34497000  1.0
  C  C458  1  0.47754000  0.14665000  0.30069000  1.0
  C  C459  1  0.47664000  0.18348000  0.26345000  1.0
  C  C460  1  0.00254000  0.15607000  0.84715000  1.0
  C  C461  1  0.00598000  0.14346000  0.79622000  1.0
  C  C462  1  0.00613000  0.18017000  0.75875000  1.0
  C  C463  1  0.00281000  0.23121000  0.77047000  1.0
  C  C464  1  0.99944000  0.24408000  0.82125000  1.0
  C  C465  1  0.99923000  0.20746000  0.85931000  1.0
  C  C466  1  0.00320000  0.27078000  0.73014000  1.0
  C  C467  1  0.03204000  0.26501000  0.68664000  1.0
  C  C468  1  0.03382000  0.30202000  0.64932000  1.0
  C  C469  1  0.00476000  0.34614000  0.65394000  1.0
  C  C470  1  0.97626000  0.35197000  0.69763000  1.0
  C  C471  1  0.97547000  0.31511000  0.73495000  1.0
  C  C472  1  0.15492000  0.99607000  0.15417000  1.0
  C  C473  1  0.14216000  0.99971000  0.20507000  1.0
  C  C474  1  0.17883000  0.99983000  0.24261000  1.0
  C  C475  1  0.22971000  0.99536000  0.23088000  1.0
  C  C476  1  0.24278000  0.99140000  0.18032000  1.0
  C  C477  1  0.20635000  0.99235000  0.14215000  1.0
  C  C478  1  0.26918000  0.99584000  0.27095000  1.0
  C  C479  1  0.26757000  0.03081000  0.30997000  1.0
  C  C480  1  0.30546000  0.03333000  0.34631000  1.0
  C  C481  1  0.34533000  0.99846000  0.34587000  1.0
  C  C482  1  0.34679000  0.96353000  0.30678000  1.0
  C  C483  1  0.30964000  0.96247000  0.26975000  1.0
  C  C484  1  0.34435000  0.49581000  0.84610000  1.0
  C  C485  1  0.35690000  0.50123000  0.79535000  1.0
  C  C486  1  0.32026000  0.50103000  0.75785000  1.0
  C  C487  1  0.26938000  0.49537000  0.76940000  1.0
  C  C488  1  0.25663000  0.48952000  0.81997000  1.0
  C  C489  1  0.29319000  0.48956000  0.85804000  1.0
  C  C490  1  0.22981000  0.49629000  0.72916000  1.0
  C  C491  1  0.23473000  0.52726000  0.68705000  1.0
  C  C492  1  0.19753000  0.52990000  0.65004000  1.0
  C  C493  1  0.15410000  0.49972000  0.65357000  1.0
  C  C494  1  0.14913000  0.46897000  0.69577000  1.0
  C  C495  1  0.18622000  0.46723000  0.73281000  1.0
  C  C496  1  0.84497000  0.99802000  0.84563000  1.0
  C  C497  1  0.85789000  0.99577000  0.79471000  1.0
  C  C498  1  0.82132000  0.99543000  0.75711000  1.0
  C  C499  1  0.77021000  0.99702000  0.76878000  1.0
  C  C500  1  0.75701000  0.99908000  0.81949000  1.0
  C  C501  1  0.79345000  0.99983000  0.85764000  1.0
  C  C502  1  0.73084000  0.99752000  0.72845000  1.0
  C  C503  1  0.73802000  0.02436000  0.68396000  1.0
  C  C504  1  0.70082000  0.02713000  0.64694000  1.0
  C  C505  1  0.65522000  0.00064000  0.65276000  1.0
  C  C506  1  0.64818000  0.97386000  0.69735000  1.0
  C  C507  1  0.68514000  0.97244000  0.73452000  1.0
  C  C508  1  0.65490000  0.49453000  0.15349000  1.0
  C  C509  1  0.64236000  0.50065000  0.20417000  1.0
  C  C510  1  0.67903000  0.50105000  0.24166000  1.0
  C  C511  1  0.72987000  0.49507000  0.23017000  1.0
  C  C512  1  0.74260000  0.48843000  0.17970000  1.0
  C  C513  1  0.70604000  0.48807000  0.14163000  1.0
  C  C514  1  0.76944000  0.49631000  0.27037000  1.0
  C  C515  1  0.76519000  0.52844000  0.31167000  1.0
  C  C516  1  0.80247000  0.53121000  0.34863000  1.0
  C  C517  1  0.84523000  0.50000000  0.34587000  1.0
  C  C518  1  0.84942000  0.46801000  0.30453000  1.0
  C  C519  1  0.81235000  0.46620000  0.26748000  1.0
  C  C520  1  0.15471000  0.00100000  0.84678000  1.0
  C  C521  1  0.15105000  0.03259000  0.80523000  1.0
  C  C522  1  0.18847000  0.03365000  0.76856000  1.0
  C  C523  1  0.23050000  0.00201000  0.77113000  1.0
  C  C524  1  0.23362000  0.96978000  0.81264000  1.0
  C  C525  1  0.19667000  0.96944000  0.85036000  1.0
  C  C526  1  0.27047000  0.00257000  0.73089000  1.0
  C  C527  1  0.25958000  0.01810000  0.68189000  1.0
  C  C528  1  0.29654000  0.02124000  0.64477000  1.0
  C  C529  1  0.34604000  0.00489000  0.65443000  1.0
  C  C530  1  0.35690000  0.98908000  0.70334000  1.0
  C  C531  1  0.32017000  0.98851000  0.74086000  1.0
  C  C532  1  0.34483000  0.50250000  0.15397000  1.0
  C  C533  1  0.35740000  0.49767000  0.20477000  1.0
  C  C534  1  0.32072000  0.49804000  0.24225000  1.0
  C  C535  1  0.26982000  0.50332000  0.23059000  1.0
  C  C536  1  0.25706000  0.50855000  0.17998000  1.0
  C  C537  1  0.29363000  0.50830000  0.14194000  1.0
  C  C538  1  0.23019000  0.50267000  0.27075000  1.0
  C  C539  1  0.23501000  0.47202000  0.31308000  1.0
  C  C540  1  0.19770000  0.46961000  0.34999000  1.0
  C  C541  1  0.15427000  0.49976000  0.34611000  1.0
  C  C542  1  0.14938000  0.53017000  0.30366000  1.0
  C  C543  1  0.18657000  0.53165000  0.26673000  1.0
  C  C544  1  0.84467000  0.00326000  0.15354000  1.0
  C  C545  1  0.85701000  0.99674000  0.20420000  1.0
  C  C546  1  0.82028000  0.99697000  0.24161000  1.0
  C  C547  1  0.76956000  0.00379000  0.23002000  1.0
  C  C548  1  0.75704000  0.01082000  0.17955000  1.0
  C  C549  1  0.79368000  0.01075000  0.14159000  1.0
  C  C550  1  0.72986000  0.00285000  0.27009000  1.0
  C  C551  1  0.73401000  0.97092000  0.31155000  1.0
  C  C552  1  0.69669000  0.96835000  0.34841000  1.0
  C  C553  1  0.65392000  0.99949000  0.34533000  1.0
  C  C554  1  0.64967000  0.03117000  0.30377000  1.0
  C  C555  1  0.68690000  0.03289000  0.26689000  1.0
  C  C556  1  0.65374000  0.50133000  0.84599000  1.0
  C  C557  1  0.64890000  0.53173000  0.80366000  1.0
  C  C558  1  0.68616000  0.53311000  0.76683000  1.0
  C  C559  1  0.72925000  0.50305000  0.77016000  1.0
  C  C560  1  0.73357000  0.47197000  0.81241000  1.0
  C  C561  1  0.69673000  0.47127000  0.85020000  1.0
  C  C562  1  0.76916000  0.50402000  0.72994000  1.0
  C  C563  1  0.75764000  0.51712000  0.68039000  1.0
  C  C564  1  0.79445000  0.52038000  0.64311000  1.0
  C  C565  1  0.84468000  0.50667000  0.65352000  1.0
  C  C566  1  0.85610000  0.49338000  0.70306000  1.0
  C  C567  1  0.81938000  0.49266000  0.74051000  1.0
  O  O568  1  0.12872000  0.06758000  0.99844000  1.0
  O  O569  1  0.87120000  0.06833000  0.00162000  1.0
  O  O570  1  0.00141000  0.12902000  0.93316000  1.0
  O  O571  1  0.99839000  0.12753000  0.06944000  1.0
  O  O572  1  0.99917000  0.06621000  0.12965000  1.0
  O  O573  1  0.00156000  0.06928000  0.87158000  1.0
  O  O574  1  0.93226000  0.12851000  0.00256000  1.0
  O  O575  1  0.06793000  0.12811000  0.99923000  1.0
  O  O576  1  0.95470000  0.04446000  0.04564000  1.0
  O  O577  1  0.04532000  0.04507000  0.95512000  1.0
  O  O578  1  0.95507000  0.04513000  0.95515000  1.0
  O  O579  1  0.04488000  0.04393000  0.04541000  1.0
  O  O580  1  0.87065000  0.93207000  0.99675000  1.0
  O  O581  1  0.12832000  0.93094000  0.00268000  1.0
  O  O582  1  0.93164000  0.99933000  0.87078000  1.0
  O  O583  1  0.93129000  0.00057000  0.12868000  1.0
  O  O584  1  0.06823000  0.99697000  0.12899000  1.0
  O  O585  1  0.06857000  0.00249000  0.87125000  1.0
  O  O586  1  0.99635000  0.87145000  0.93090000  1.0
  O  O587  1  0.00060000  0.87022000  0.06684000  1.0
  O  O588  1  0.99903000  0.93255000  0.87038000  1.0
  O  O589  1  0.00079000  0.93008000  0.12831000  1.0
  O  O590  1  0.87120000  0.99920000  0.93168000  1.0
  O  O591  1  0.12906000  0.99934000  0.93235000  1.0
  O  O592  1  0.12864000  0.99777000  0.06809000  1.0
  O  O593  1  0.87100000  0.00128000  0.06759000  1.0
  O  O594  1  0.93112000  0.87098000  0.99831000  1.0
  O  O595  1  0.06735000  0.87034000  0.99946000  1.0
  O  O596  1  0.04489000  0.95365000  0.04495000  1.0
  O  O597  1  0.95455000  0.95504000  0.95411000  1.0
  O  O598  1  0.04458000  0.95490000  0.95465000  1.0
  O  O599  1  0.95456000  0.95446000  0.04451000  1.0
  O  O600  1  0.62826000  0.56676000  0.99822000  1.0
  O  O601  1  0.37085000  0.56694000  0.00160000  1.0
  O  O602  1  0.50148000  0.62852000  0.93294000  1.0
  O  O603  1  0.49752000  0.62706000  0.06942000  1.0
  O  O604  1  0.49932000  0.56565000  0.12956000  1.0
  O  O605  1  0.50085000  0.56867000  0.87143000  1.0
  O  O606  1  0.43117000  0.62800000  0.00105000  1.0
  O  O607  1  0.56806000  0.62789000  0.00063000  1.0
  O  O608  1  0.45450000  0.54390000  0.04568000  1.0
  O  O609  1  0.54479000  0.54468000  0.95485000  1.0
  O  O610  1  0.45466000  0.54436000  0.95529000  1.0
  O  O611  1  0.54459000  0.54336000  0.04505000  1.0
  O  O612  1  0.37070000  0.43084000  0.99860000  1.0
  O  O613  1  0.62825000  0.43047000  0.00023000  1.0
  O  O614  1  0.43096000  0.49843000  0.87097000  1.0
  O  O615  1  0.43146000  0.49991000  0.12889000  1.0
  O  O616  1  0.56830000  0.49620000  0.12857000  1.0
  O  O617  1  0.56767000  0.50204000  0.87077000  1.0
  O  O618  1  0.49646000  0.37087000  0.93103000  1.0
  O  O619  1  0.50136000  0.36977000  0.06676000  1.0
  O  O620  1  0.49809000  0.43181000  0.87041000  1.0
  O  O621  1  0.50115000  0.42956000  0.12824000  1.0
  O  O622  1  0.37079000  0.49736000  0.93212000  1.0
  O  O623  1  0.62838000  0.49951000  0.93164000  1.0
  O  O624  1  0.62849000  0.49650000  0.06743000  1.0
  O  O625  1  0.37104000  0.50055000  0.06798000  1.0
  O  O626  1  0.43154000  0.37014000  0.99854000  1.0
  O  O627  1  0.56727000  0.36994000  0.99939000  1.0
  O  O628  1  0.54494000  0.45316000  0.04475000  1.0
  O  O629  1  0.45427000  0.45425000  0.95420000  1.0
  O  O630  1  0.54419000  0.45438000  0.95426000  1.0
  O  O631  1  0.45467000  0.45371000  0.04471000  1.0
  O  O632  1  0.12857000  0.56849000  0.49790000  1.0
  O  O633  1  0.87124000  0.56909000  0.50139000  1.0
  O  O634  1  0.00230000  0.62902000  0.43135000  1.0
  O  O635  1  0.99822000  0.62901000  0.56748000  1.0
  O  O636  1  0.99955000  0.56884000  0.62866000  1.0
  O  O637  1  0.00124000  0.56825000  0.37052000  1.0
  O  O638  1  0.93226000  0.62933000  0.50106000  1.0
  O  O639  1  0.06783000  0.62900000  0.49841000  1.0
  O  O640  1  0.95462000  0.54574000  0.54496000  1.0
  O  O641  1  0.04520000  0.54552000  0.45428000  1.0
  O  O642  1  0.95487000  0.54547000  0.45459000  1.0
  O  O643  1  0.04470000  0.54519000  0.54466000  1.0
  O  O644  1  0.87067000  0.43278000  0.49828000  1.0
  O  O645  1  0.12826000  0.43223000  0.50230000  1.0
  O  O646  1  0.93138000  0.49902000  0.37079000  1.0
  O  O647  1  0.93121000  0.50331000  0.62854000  1.0
  O  O648  1  0.06799000  0.49882000  0.62871000  1.0
  O  O649  1  0.06813000  0.50137000  0.37089000  1.0
  O  O650  1  0.99671000  0.37159000  0.43094000  1.0
  O  O651  1  0.00151000  0.37136000  0.56777000  1.0
  O  O652  1  0.99872000  0.43258000  0.37087000  1.0
  O  O653  1  0.00111000  0.43210000  0.62869000  1.0
  O  O654  1  0.87070000  0.49992000  0.43173000  1.0
  O  O655  1  0.12871000  0.50060000  0.43190000  1.0
  O  O656  1  0.12860000  0.49941000  0.56773000  1.0
  O  O657  1  0.87088000  0.50199000  0.56756000  1.0
  O  O658  1  0.93076000  0.37155000  0.49850000  1.0
  O  O659  1  0.06762000  0.37137000  0.50018000  1.0
  O  O660  1  0.04461000  0.45502000  0.54489000  1.0
  O  O661  1  0.95424000  0.45523000  0.45430000  1.0
  O  O662  1  0.04443000  0.45526000  0.45480000  1.0
  O  O663  1  0.95461000  0.45549000  0.54476000  1.0
  O  O664  1  0.62842000  0.06807000  0.49619000  1.0
  O  O665  1  0.37083000  0.06631000  0.50189000  1.0
  O  O666  1  0.50133000  0.12831000  0.43097000  1.0
  O  O667  1  0.49682000  0.12850000  0.56660000  1.0
  O  O668  1  0.49979000  0.06885000  0.62799000  1.0
  O  O669  1  0.50138000  0.06744000  0.37032000  1.0
  O  O670  1  0.43027000  0.12780000  0.49933000  1.0
  O  O671  1  0.56743000  0.12870000  0.49781000  1.0
  O  O672  1  0.45462000  0.04467000  0.54475000  1.0
  O  O673  1  0.54484000  0.04488000  0.45390000  1.0
  O  O674  1  0.45455000  0.04407000  0.45441000  1.0
  O  O675  1  0.54480000  0.04492000  0.54392000  1.0
  O  O676  1  0.37149000  0.93047000  0.49900000  1.0
  O  O677  1  0.62889000  0.93163000  0.50080000  1.0
  O  O678  1  0.43138000  0.99751000  0.37062000  1.0
  O  O679  1  0.43237000  0.00218000  0.62888000  1.0
  O  O680  1  0.56895000  0.99947000  0.62816000  1.0
  O  O681  1  0.56789000  0.00077000  0.37034000  1.0
  O  O682  1  0.49712000  0.87083000  0.43103000  1.0
  O  O683  1  0.50320000  0.87097000  0.56789000  1.0
  O  O684  1  0.49899000  0.93161000  0.37074000  1.0
  O  O685  1  0.50264000  0.93183000  0.62867000  1.0
  O  O686  1  0.37083000  0.99826000  0.43177000  1.0
  O  O687  1  0.62871000  0.00002000  0.43112000  1.0
  O  O688  1  0.62922000  0.99936000  0.56690000  1.0
  O  O689  1  0.37166000  0.00022000  0.56821000  1.0
  O  O690  1  0.43262000  0.87010000  0.49958000  1.0
  O  O691  1  0.56824000  0.87072000  0.49951000  1.0
  O  O692  1  0.54554000  0.95459000  0.54473000  1.0
  O  O693  1  0.45470000  0.95387000  0.45428000  1.0
  O  O694  1  0.54482000  0.95464000  0.45440000  1.0
  O  O695  1  0.45557000  0.95451000  0.54493000  1.0
  O  O696  1  0.09219000  0.21986000  0.98397000  1.0
  O  O697  1  0.38745000  0.29498000  0.06479000  1.0
  O  O698  1  0.09226000  0.72180000  0.49259000  1.0
  O  O699  1  0.39068000  0.79207000  0.56243000  1.0
  O  O700  1  0.79755000  0.89150000  0.93390000  1.0
  O  O701  1  0.71976000  0.59713000  0.03509000  1.0
  O  O702  1  0.77832000  0.40815000  0.51072000  1.0
  O  O703  1  0.70205000  0.11288000  0.42730000  1.0
  O  O704  1  0.90808000  0.22132000  0.00919000  1.0
  O  O705  1  0.60979000  0.29191000  0.93676000  1.0
  O  O706  1  0.90791000  0.72128000  0.51602000  1.0
  O  O707  1  0.61304000  0.79618000  0.43319000  1.0
  O  O708  1  0.21042000  0.40040000  0.54904000  1.0
  O  O709  1  0.27167000  0.09246000  0.49860000  1.0
  O  O710  1  0.19488000  0.88510000  0.07210000  1.0
  O  O711  1  0.28208000  0.59878000  0.95848000  1.0
  O  O712  1  0.04331000  0.09818000  0.21305000  1.0
  O  O713  1  0.99381000  0.40645000  0.27346000  1.0
  O  O714  1  0.44599000  0.29076000  0.89818000  1.0
  O  O715  1  0.50507000  0.22572000  0.59202000  1.0
  O  O716  1  0.93177000  0.80071000  0.88977000  1.0
  O  O717  1  0.03616000  0.71960000  0.59787000  1.0
  O  O718  1  0.54642000  0.59880000  0.21136000  1.0
  O  O719  1  0.48865000  0.90536000  0.27375000  1.0
  O  O720  1  0.98426000  0.77836000  0.09169000  1.0
  O  O721  1  0.07437000  0.69978000  0.38365000  1.0
  O  O722  1  0.50100000  0.72178000  0.90910000  1.0
  O  O723  1  0.56627000  0.79243000  0.60863000  1.0
  O  O724  1  0.50422000  0.27665000  0.09032000  1.0
  O  O725  1  0.56474000  0.20649000  0.39054000  1.0
  O  O726  1  0.99557000  0.22219000  0.90915000  1.0
  O  O727  1  0.06675000  0.29425000  0.60971000  1.0
  O  O728  1  0.22136000  0.98999000  0.09231000  1.0
  O  O729  1  0.30346000  0.07275000  0.38027000  1.0
  O  O730  1  0.27865000  0.48326000  0.90767000  1.0
  O  O731  1  0.20437000  0.56479000  0.61193000  1.0
  O  O732  1  0.77840000  0.00297000  0.90743000  1.0
  O  O733  1  0.70997000  0.05867000  0.60648000  1.0
  O  O734  1  0.72056000  0.48113000  0.09208000  1.0
  O  O735  1  0.79640000  0.56708000  0.38594000  1.0
  O  O736  1  0.20064000  0.93677000  0.89075000  1.0
  O  O737  1  0.28276000  0.04319000  0.59970000  1.0
  O  O738  1  0.27902000  0.51389000  0.09224000  1.0
  O  O739  1  0.20446000  0.43501000  0.38839000  1.0
  O  O740  1  0.77941000  0.01833000  0.09205000  1.0
  O  O741  1  0.70270000  0.93267000  0.38593000  1.0
  O  O742  1  0.70189000  0.43968000  0.89132000  1.0
  O  O743  1  0.77949000  0.53933000  0.59701000  1.0
