# generated using pymatgen
data_Zn15H104C164(N27O8)2
_symmetry_space_group_name_H-M   'P 1'
_cell_length_a   36.13270000
_cell_length_b   36.13280000
_cell_length_c   36.13280000
_cell_angle_alpha   60.14280000
_cell_angle_beta   89.75250000
_cell_angle_gamma   119.85700000
_symmetry_Int_Tables_number   1
_chemical_formula_structural   Zn15H104C164(N27O8)2
_chemical_formula_sum   'Zn60 H416 C656 N216 O64'
_cell_volume   33428.89416611
_cell_formula_units_Z   4
loop_
 _symmetry_equiv_pos_site_id
 _symmetry_equiv_pos_as_xyz
  1  'x, y, z'
loop_
 _atom_site_type_symbol
 _atom_site_label
 _atom_site_symmetry_multiplicity
 _atom_site_fract_x
 _atom_site_fract_y
 _atom_site_fract_z
 _atom_site_occupancy
  Zn  Zn0  1  0.22556000  0.33520000  0.10110000  1.0
  Zn  Zn1  1  0.22086000  0.32675000  0.94291000  1.0
  Zn  Zn2  1  0.06370000  0.16480000  0.10964000  1.0
  Zn  Zn3  1  0.23034000  0.17325000  0.10589000  1.0
  Zn  Zn4  1  0.39036000  0.82666000  0.27444000  1.0
  Zn  Zn5  1  0.39411000  0.66377000  0.27914000  1.0
  Zn  Zn6  1  0.39890000  0.67334000  0.43630000  1.0
  Zn  Zn7  1  0.55709000  0.83623000  0.26966000  1.0
  Zn  Zn8  1  0.18521000  0.25000000  0.06479000  1.0
  Zn  Zn9  1  0.43521000  0.75000000  0.31479000  1.0
  Zn  Zn10  1  0.77444000  0.66480000  0.89890000  1.0
  Zn  Zn11  1  0.77914000  0.67325000  0.05709000  1.0
  Zn  Zn12  1  0.93630000  0.83520000  0.89036000  1.0
  Zn  Zn13  1  0.76966000  0.82675000  0.89411000  1.0
  Zn  Zn14  1  0.60964000  0.17334000  0.72556000  1.0
  Zn  Zn15  1  0.60589000  0.33623000  0.72086000  1.0
  Zn  Zn16  1  0.60110000  0.32666000  0.56370000  1.0
  Zn  Zn17  1  0.44291000  0.16377000  0.73034000  1.0
  Zn  Zn18  1  0.81479000  0.75000000  0.93521000  1.0
  Zn  Zn19  1  0.56479000  0.25000000  0.68521000  1.0
  Zn  Zn20  1  0.24416000  0.61641000  0.87793000  1.0
  Zn  Zn21  1  0.20163000  0.53192000  0.84101000  1.0
  Zn  Zn22  1  0.36629000  0.70164000  0.83059000  1.0
  Zn  Zn23  1  0.20947000  0.54004000  0.99895000  1.0
  Zn  Zn24  1  0.19961000  0.69357000  0.83896000  1.0
  Zn  Zn25  1  0.99434000  0.11641000  0.62775000  1.0
  Zn  Zn26  1  0.87293000  0.03192000  0.66971000  1.0
  Zn  Zn27  1  0.03223000  0.20164000  0.66465000  1.0
  Zn  Zn28  1  0.03899000  0.04004000  0.66943000  1.0
  Zn  Zn29  1  0.03253000  0.19357000  0.50604000  1.0
  Zn  Zn30  1  0.00566000  0.88359000  0.37225000  1.0
  Zn  Zn31  1  0.12707000  0.96808000  0.33029000  1.0
  Zn  Zn32  1  0.96777000  0.79836000  0.33535000  1.0
  Zn  Zn33  1  0.96101000  0.95996000  0.33057000  1.0
  Zn  Zn34  1  0.96747000  0.80643000  0.49396000  1.0
  Zn  Zn35  1  0.75584000  0.38359000  0.12207000  1.0
  Zn  Zn36  1  0.79837000  0.46808000  0.15899000  1.0
  Zn  Zn37  1  0.63371000  0.29836000  0.16941000  1.0
  Zn  Zn38  1  0.79053000  0.45996000  0.00105000  1.0
  Zn  Zn39  1  0.80039000  0.30643000  0.16104000  1.0
  Zn  Zn40  1  0.12775000  0.62209000  0.25584000  1.0
  Zn  Zn41  1  0.16971000  0.54264000  0.29837000  1.0
  Zn  Zn42  1  0.16465000  0.69688000  0.13371000  1.0
  Zn  Zn43  1  0.16943000  0.70842000  0.29053000  1.0
  Zn  Zn44  1  0.00604000  0.53857000  0.30039000  1.0
  Zn  Zn45  1  0.37793000  0.12209000  0.50566000  1.0
  Zn  Zn46  1  0.34101000  0.04264000  0.62707000  1.0
  Zn  Zn47  1  0.33059000  0.19688000  0.46777000  1.0
  Zn  Zn48  1  0.49895000  0.20842000  0.46101000  1.0
  Zn  Zn49  1  0.33896000  0.03857000  0.46747000  1.0
  Zn  Zn50  1  0.62207000  0.87791000  0.49434000  1.0
  Zn  Zn51  1  0.65899000  0.95736000  0.37293000  1.0
  Zn  Zn52  1  0.66941000  0.80312000  0.53223000  1.0
  Zn  Zn53  1  0.50105000  0.79158000  0.53899000  1.0
  Zn  Zn54  1  0.66104000  0.96143000  0.53253000  1.0
  Zn  Zn55  1  0.87225000  0.37791000  0.74416000  1.0
  Zn  Zn56  1  0.83029000  0.45736000  0.70163000  1.0
  Zn  Zn57  1  0.83535000  0.30312000  0.86629000  1.0
  Zn  Zn58  1  0.83057000  0.29158000  0.70947000  1.0
  Zn  Zn59  1  0.99396000  0.46143000  0.69961000  1.0
  H  H60  1  0.27620000  0.45880000  0.89180000  1.0
  H  H61  1  0.30810000  0.53790000  0.88260000  1.0
  H  H62  1  0.30830000  0.54060000  0.94530000  1.0
  H  H63  1  0.27640000  0.46410000  0.01730000  1.0
  H  H64  1  0.13660000  0.30350000  0.89870000  1.0
  H  H65  1  0.06450000  0.26730000  0.89320000  1.0
  H  H66  1  0.00120000  0.20290000  0.95850000  1.0
  H  H67  1  0.00990000  0.17480000  0.02910000  1.0
  H  H68  1  0.28580000  0.51910000  0.28050000  1.0
  H  H69  1  0.26120000  0.46940000  0.25280000  1.0
  H  H70  1  0.37620000  0.57570000  0.14930000  1.0
  H  H71  1  0.40080000  0.62540000  0.17700000  1.0
  H  H72  1  0.34800000  0.54340000  0.11960000  1.0
  H  H73  1  0.32440000  0.49440000  0.09120000  1.0
  H  H74  1  0.22670000  0.37210000  0.20860000  1.0
  H  H75  1  0.25020000  0.42110000  0.23710000  1.0
  H  H76  1  0.28710000  0.31170000  0.89660000  1.0
  H  H77  1  0.32890000  0.28520000  0.88250000  1.0
  H  H78  1  0.01770000  0.18790000  0.16880000  1.0
  H  H79  1  0.00620000  0.21330000  0.21250000  1.0
  H  H80  1  0.14940000  0.04120000  0.18260000  1.0
  H  H81  1  0.07950000  0.96210000  0.22980000  1.0
  H  H82  1  0.01410000  0.95940000  0.23230000  1.0
  H  H83  1  0.01860000  0.03590000  0.18770000  1.0
  H  H84  1  0.29780000  0.19650000  0.16690000  1.0
  H  H85  1  0.33950000  0.23270000  0.20280000  1.0
  H  H86  1  0.33860000  0.29710000  0.20170000  1.0
  H  H87  1  0.29610000  0.32520000  0.16490000  1.0
  H  H88  1  0.70040000  0.98090000  0.23330000  1.0
  H  H89  1  0.77780000  0.03060000  0.20820000  1.0
  H  H90  1  0.77500000  0.92430000  0.19950000  1.0
  H  H91  1  0.69760000  0.87460000  0.22460000  1.0
  H  H92  1  0.83700000  0.95660000  0.19540000  1.0
  H  H93  1  0.91440000  0.00560000  0.17000000  1.0
  H  H94  1  0.91930000  0.12790000  0.14540000  1.0
  H  H95  1  0.84180000  0.07890000  0.17090000  1.0
  H  H96  1  0.29170000  0.18830000  0.02460000  1.0
  H  H97  1  0.33230000  0.21480000  0.95630000  1.0
  H  H98  1  0.14330000  0.31210000  0.17020000  1.0
  H  H99  1  0.07420000  0.28670000  0.20710000  1.0
  H  H100  1  0.31740000  0.66800000  0.22380000  1.0
  H  H101  1  0.27020000  0.69070000  0.19190000  1.0
  H  H102  1  0.26770000  0.75360000  0.19170000  1.0
  H  H103  1  0.31230000  0.79370000  0.22360000  1.0
  H  H104  1  0.33310000  0.53530000  0.36340000  1.0
  H  H105  1  0.29720000  0.45770000  0.43550000  1.0
  H  H106  1  0.29830000  0.45970000  0.49880000  1.0
  H  H107  1  0.33510000  0.53900000  0.49010000  1.0
  H  H108  1  0.26670000  0.06630000  0.21420000  1.0
  H  H109  1  0.29180000  0.01400000  0.23880000  1.0
  H  H110  1  0.30050000  0.02550000  0.12380000  1.0
  H  H111  1  0.27540000  0.07780000  0.09920000  1.0
  H  H112  1  0.30460000  0.96760000  0.15200000  1.0
  H  H113  1  0.33000000  0.91560000  0.17560000  1.0
  H  H114  1  0.35460000  0.93530000  0.27330000  1.0
  H  H115  1  0.32910000  0.98730000  0.24980000  1.0
  H  H116  1  0.47540000  0.68370000  0.21290000  1.0
  H  H117  1  0.54370000  0.71140000  0.17110000  1.0
  H  H118  1  0.32980000  0.68650000  0.48230000  1.0
  H  H119  1  0.29290000  0.71870000  0.49380000  1.0
  H  H120  1  0.60820000  0.83200000  0.35060000  1.0
  H  H121  1  0.61740000  0.80930000  0.42050000  1.0
  H  H122  1  0.55470000  0.74640000  0.48590000  1.0
  H  H123  1  0.48270000  0.70630000  0.48140000  1.0
  H  H124  1  0.60130000  0.96470000  0.20220000  1.0
  H  H125  1  0.60680000  0.04230000  0.16050000  1.0
  H  H126  1  0.54150000  0.04030000  0.16140000  1.0
  H  H127  1  0.47090000  0.96100000  0.20390000  1.0
  H  H128  1  0.21950000  0.43370000  0.79960000  1.0
  H  H129  1  0.24720000  0.48600000  0.72220000  1.0
  H  H130  1  0.35070000  0.47450000  0.72500000  1.0
  H  H131  1  0.32300000  0.42220000  0.80240000  1.0
  H  H132  1  0.38040000  0.53240000  0.66300000  1.0
  H  H133  1  0.40880000  0.58440000  0.58560000  1.0
  H  H134  1  0.29140000  0.56470000  0.58070000  1.0
  H  H135  1  0.26290000  0.51270000  0.65820000  1.0
  H  H136  1  0.60340000  0.81630000  0.20830000  1.0
  H  H137  1  0.61750000  0.78860000  0.16770000  1.0
  H  H138  1  0.33120000  0.81350000  0.35670000  1.0
  H  H139  1  0.28750000  0.78130000  0.42580000  1.0
  H  H140  1  0.72380000  0.54120000  0.10820000  1.0
  H  H141  1  0.69190000  0.46210000  0.11740000  1.0
  H  H142  1  0.69170000  0.45940000  0.05470000  1.0
  H  H143  1  0.72360000  0.53590000  0.98270000  1.0
  H  H144  1  0.86340000  0.69650000  0.10130000  1.0
  H  H145  1  0.93550000  0.73270000  0.10680000  1.0
  H  H146  1  0.99880000  0.79710000  0.04150000  1.0
  H  H147  1  0.99010000  0.82520000  0.97090000  1.0
  H  H148  1  0.71420000  0.48090000  0.71950000  1.0
  H  H149  1  0.73880000  0.53060000  0.74720000  1.0
  H  H150  1  0.62380000  0.42430000  0.85070000  1.0
  H  H151  1  0.59920000  0.37460000  0.82300000  1.0
  H  H152  1  0.65200000  0.45660000  0.88040000  1.0
  H  H153  1  0.67560000  0.50560000  0.90880000  1.0
  H  H154  1  0.77330000  0.62790000  0.79140000  1.0
  H  H155  1  0.74980000  0.57890000  0.76290000  1.0
  H  H156  1  0.71290000  0.68830000  0.10340000  1.0
  H  H157  1  0.67110000  0.71480000  0.11750000  1.0
  H  H158  1  0.98230000  0.81210000  0.83120000  1.0
  H  H159  1  0.99380000  0.78670000  0.78750000  1.0
  H  H160  1  0.85060000  0.95880000  0.81740000  1.0
  H  H161  1  0.92050000  0.03790000  0.77020000  1.0
  H  H162  1  0.98590000  0.04060000  0.76770000  1.0
  H  H163  1  0.98140000  0.96410000  0.81230000  1.0
  H  H164  1  0.70220000  0.80350000  0.83310000  1.0
  H  H165  1  0.66050000  0.76730000  0.79720000  1.0
  H  H166  1  0.66140000  0.70290000  0.79830000  1.0
  H  H167  1  0.70390000  0.67480000  0.83510000  1.0
  H  H168  1  0.29960000  0.01910000  0.76670000  1.0
  H  H169  1  0.22220000  0.96940000  0.79180000  1.0
  H  H170  1  0.22500000  0.07570000  0.80050000  1.0
  H  H171  1  0.30240000  0.12540000  0.77540000  1.0
  H  H172  1  0.16300000  0.04340000  0.80460000  1.0
  H  H173  1  0.08560000  0.99440000  0.83000000  1.0
  H  H174  1  0.08070000  0.87210000  0.85460000  1.0
  H  H175  1  0.15820000  0.92110000  0.82910000  1.0
  H  H176  1  0.70830000  0.81170000  0.97540000  1.0
  H  H177  1  0.66770000  0.78520000  0.04370000  1.0
  H  H178  1  0.85670000  0.68790000  0.82980000  1.0
  H  H179  1  0.92580000  0.71330000  0.79290000  1.0
  H  H180  1  0.68260000  0.33200000  0.77620000  1.0
  H  H181  1  0.72980000  0.30930000  0.80810000  1.0
  H  H182  1  0.73230000  0.24640000  0.80830000  1.0
  H  H183  1  0.68770000  0.20630000  0.77640000  1.0
  H  H184  1  0.66690000  0.46470000  0.63660000  1.0
  H  H185  1  0.70280000  0.54230000  0.56450000  1.0
  H  H186  1  0.70170000  0.54030000  0.50120000  1.0
  H  H187  1  0.66490000  0.46100000  0.50990000  1.0
  H  H188  1  0.73330000  0.93370000  0.78580000  1.0
  H  H189  1  0.70820000  0.98600000  0.76120000  1.0
  H  H190  1  0.69950000  0.97450000  0.87620000  1.0
  H  H191  1  0.72460000  0.92220000  0.90080000  1.0
  H  H192  1  0.69540000  0.03240000  0.84800000  1.0
  H  H193  1  0.67000000  0.08440000  0.82440000  1.0
  H  H194  1  0.64540000  0.06470000  0.72670000  1.0
  H  H195  1  0.67090000  0.01270000  0.75020000  1.0
  H  H196  1  0.52460000  0.31630000  0.78710000  1.0
  H  H197  1  0.45630000  0.28860000  0.82890000  1.0
  H  H198  1  0.67020000  0.31350000  0.51770000  1.0
  H  H199  1  0.70710000  0.28130000  0.50620000  1.0
  H  H200  1  0.39180000  0.16800000  0.64940000  1.0
  H  H201  1  0.38260000  0.19070000  0.57950000  1.0
  H  H202  1  0.44530000  0.25360000  0.51410000  1.0
  H  H203  1  0.51730000  0.29370000  0.51860000  1.0
  H  H204  1  0.39870000  0.03530000  0.79780000  1.0
  H  H205  1  0.39320000  0.95770000  0.83950000  1.0
  H  H206  1  0.45850000  0.95970000  0.83860000  1.0
  H  H207  1  0.52910000  0.03900000  0.79610000  1.0
  H  H208  1  0.78050000  0.56630000  0.20040000  1.0
  H  H209  1  0.75280000  0.51400000  0.27780000  1.0
  H  H210  1  0.64930000  0.52550000  0.27500000  1.0
  H  H211  1  0.67700000  0.57780000  0.19760000  1.0
  H  H212  1  0.61960000  0.46760000  0.33700000  1.0
  H  H213  1  0.59120000  0.41560000  0.41440000  1.0
  H  H214  1  0.70860000  0.43530000  0.41930000  1.0
  H  H215  1  0.73710000  0.48730000  0.34180000  1.0
  H  H216  1  0.39660000  0.18370000  0.79170000  1.0
  H  H217  1  0.38250000  0.21140000  0.83230000  1.0
  H  H218  1  0.66880000  0.18650000  0.64330000  1.0
  H  H219  1  0.71250000  0.21870000  0.57420000  1.0
  H  H220  1  0.14960000  0.56240000  0.05040000  1.0
  H  H221  1  0.11130000  0.59590000  0.05780000  1.0
  H  H222  1  0.10560000  0.65460000  0.99380000  1.0
  H  H223  1  0.13850000  0.68000000  0.92230000  1.0
  H  H224  1  0.41050000  0.82780000  0.75510000  1.0
  H  H225  1  0.41640000  0.90540000  0.70900000  1.0
  H  H226  1  0.35210000  0.90550000  0.71400000  1.0
  H  H227  1  0.28180000  0.82800000  0.76540000  1.0
  H  H228  1  0.12200000  0.53460000  0.79020000  1.0
  H  H229  1  0.07420000  0.55700000  0.76120000  1.0
  H  H230  1  0.07410000  0.62060000  0.76110000  1.0
  H  H231  1  0.12170000  0.66190000  0.79000000  1.0
  H  H232  1  0.41970000  0.68730000  0.90860000  1.0
  H  H233  1  0.43010000  0.65740000  0.97850000  1.0
  H  H234  1  0.36790000  0.59600000  0.04430000  1.0
  H  H235  1  0.29560000  0.56460000  0.04040000  1.0
  H  H236  1  0.28220000  0.54840000  0.77240000  1.0
  H  H237  1  0.35270000  0.57850000  0.73360000  1.0
  H  H238  1  0.41740000  0.64390000  0.73110000  1.0
  H  H239  1  0.41150000  0.67920000  0.76750000  1.0
  H  H240  1  0.15120000  0.40310000  0.92490000  1.0
  H  H241  1  0.11970000  0.32680000  0.99670000  1.0
  H  H242  1  0.12120000  0.32970000  0.05930000  1.0
  H  H243  1  0.15420000  0.40870000  0.05010000  1.0
  H  H244  1  0.11380000  0.26900000  0.36300000  1.0
  H  H245  1  0.14420000  0.32490000  0.28490000  1.0
  H  H246  1  0.07680000  0.38570000  0.28430000  1.0
  H  H247  1  0.04640000  0.32960000  0.36240000  1.0
  H  H248  1  0.11630000  0.34090000  0.21800000  1.0
  H  H249  1  0.14670000  0.39690000  0.14040000  1.0
  H  H250  1  0.18470000  0.51660000  0.14750000  1.0
  H  H251  1  0.15430000  0.46060000  0.22510000  1.0
  H  H252  1  0.11280000  0.06240000  0.58720000  1.0
  H  H253  1  0.15370000  0.09590000  0.51540000  1.0
  H  H254  1  0.14840000  0.15460000  0.45100000  1.0
  H  H255  1  0.10230000  0.18000000  0.45850000  1.0
  H  H256  1  0.08290000  0.32780000  0.58270000  1.0
  H  H257  1  0.11440000  0.40540000  0.51100000  1.0
  H  H258  1  0.11950000  0.40550000  0.44660000  1.0
  H  H259  1  0.09340000  0.32800000  0.45380000  1.0
  H  H260  1  0.82480000  0.03460000  0.58740000  1.0
  H  H261  1  0.81820000  0.05700000  0.51720000  1.0
  H  H262  1  0.88170000  0.12060000  0.45350000  1.0
  H  H263  1  0.95190000  0.16190000  0.45980000  1.0
  H  H264  1  0.09590000  0.18730000  0.73240000  1.0
  H  H265  1  0.13590000  0.15740000  0.77270000  1.0
  H  H266  1  0.14030000  0.09600000  0.77190000  1.0
  H  H267  1  0.10500000  0.06460000  0.73100000  1.0
  H  H268  1  0.82080000  0.04840000  0.73380000  1.0
  H  H269  1  0.81210000  0.07850000  0.77420000  1.0
  H  H270  1  0.87500000  0.14390000  0.77350000  1.0
  H  H271  1  0.94670000  0.17920000  0.73230000  1.0
  H  H272  1  0.82800000  0.90310000  0.74810000  1.0
  H  H273  1  0.82350000  0.82680000  0.79290000  1.0
  H  H274  1  0.88900000  0.82970000  0.79150000  1.0
  H  H275  1  0.95880000  0.90870000  0.74550000  1.0
  H  H276  1  0.13200000  0.76900000  0.84480000  1.0
  H  H277  1  0.10980000  0.82490000  0.81930000  1.0
  H  H278  1  0.17000000  0.88570000  0.69110000  1.0
  H  H279  1  0.19200000  0.82960000  0.71680000  1.0
  H  H280  1  0.05890000  0.84090000  0.77540000  1.0
  H  H281  1  0.03730000  0.89690000  0.74980000  1.0
  H  H282  1  0.16410000  0.01660000  0.66810000  1.0
  H  H283  1  0.18570000  0.96060000  0.69370000  1.0
  H  H284  1  0.88720000  0.93760000  0.41280000  1.0
  H  H285  1  0.84630000  0.90410000  0.48460000  1.0
  H  H286  1  0.85160000  0.84540000  0.54900000  1.0
  H  H287  1  0.89770000  0.82000000  0.54150000  1.0
  H  H288  1  0.91710000  0.67220000  0.41730000  1.0
  H  H289  1  0.88560000  0.59460000  0.48900000  1.0
  H  H290  1  0.88050000  0.59450000  0.55340000  1.0
  H  H291  1  0.90660000  0.67200000  0.54620000  1.0
  H  H292  1  0.17520000  0.96540000  0.41260000  1.0
  H  H293  1  0.18180000  0.94300000  0.48280000  1.0
  H  H294  1  0.11830000  0.87940000  0.54650000  1.0
  H  H295  1  0.04810000  0.83810000  0.54020000  1.0
  H  H296  1  0.90410000  0.81270000  0.26760000  1.0
  H  H297  1  0.86410000  0.84260000  0.22730000  1.0
  H  H298  1  0.85970000  0.90400000  0.22810000  1.0
  H  H299  1  0.89500000  0.93540000  0.26900000  1.0
  H  H300  1  0.17920000  0.95160000  0.26620000  1.0
  H  H301  1  0.18790000  0.92150000  0.22580000  1.0
  H  H302  1  0.12500000  0.85610000  0.22650000  1.0
  H  H303  1  0.05330000  0.82080000  0.26770000  1.0
  H  H304  1  0.17200000  0.09690000  0.25190000  1.0
  H  H305  1  0.17650000  0.17320000  0.20710000  1.0
  H  H306  1  0.11100000  0.17030000  0.20850000  1.0
  H  H307  1  0.04120000  0.09130000  0.25450000  1.0
  H  H308  1  0.86800000  0.23100000  0.15520000  1.0
  H  H309  1  0.89020000  0.17510000  0.18070000  1.0
  H  H310  1  0.83000000  0.11430000  0.30890000  1.0
  H  H311  1  0.80800000  0.17040000  0.28320000  1.0
  H  H312  1  0.94110000  0.15910000  0.22460000  1.0
  H  H313  1  0.96270000  0.10310000  0.25020000  1.0
  H  H314  1  0.83590000  0.98340000  0.33190000  1.0
  H  H315  1  0.81430000  0.03940000  0.30630000  1.0
  H  H316  1  0.85040000  0.43760000  0.94960000  1.0
  H  H317  1  0.88870000  0.40410000  0.94220000  1.0
  H  H318  1  0.89440000  0.34540000  0.00620000  1.0
  H  H319  1  0.86150000  0.32000000  0.07770000  1.0
  H  H320  1  0.58950000  0.17220000  0.24490000  1.0
  H  H321  1  0.58360000  0.09460000  0.29100000  1.0
  H  H322  1  0.64790000  0.09450000  0.28600000  1.0
  H  H323  1  0.71820000  0.17200000  0.23460000  1.0
  H  H324  1  0.87800000  0.46540000  0.20980000  1.0
  H  H325  1  0.92580000  0.44300000  0.23880000  1.0
  H  H326  1  0.92590000  0.37940000  0.23890000  1.0
  H  H327  1  0.87830000  0.33810000  0.21000000  1.0
  H  H328  1  0.58030000  0.31270000  0.09140000  1.0
  H  H329  1  0.56990000  0.34260000  0.02150000  1.0
  H  H330  1  0.63210000  0.40400000  0.95570000  1.0
  H  H331  1  0.70440000  0.43540000  0.95960000  1.0
  H  H332  1  0.71780000  0.45160000  0.22760000  1.0
  H  H333  1  0.64730000  0.42150000  0.26640000  1.0
  H  H334  1  0.58260000  0.35610000  0.26890000  1.0
  H  H335  1  0.58850000  0.32080000  0.23250000  1.0
  H  H336  1  0.84880000  0.59690000  0.07510000  1.0
  H  H337  1  0.88030000  0.67320000  0.00330000  1.0
  H  H338  1  0.87880000  0.67030000  0.94070000  1.0
  H  H339  1  0.84580000  0.59130000  0.94990000  1.0
  H  H340  1  0.88620000  0.73100000  0.63700000  1.0
  H  H341  1  0.85580000  0.67510000  0.71510000  1.0
  H  H342  1  0.92320000  0.61430000  0.71570000  1.0
  H  H343  1  0.95360000  0.67040000  0.63760000  1.0
  H  H344  1  0.88370000  0.65910000  0.78200000  1.0
  H  H345  1  0.85330000  0.60310000  0.85960000  1.0
  H  H346  1  0.81530000  0.48340000  0.85250000  1.0
  H  H347  1  0.84570000  0.53940000  0.77490000  1.0
  H  H348  1  0.08720000  0.70000000  0.35040000  1.0
  H  H349  1  0.01540000  0.66910000  0.38870000  1.0
  H  H350  1  0.95100000  0.59940000  0.39440000  1.0
  H  H351  1  0.95850000  0.56080000  0.36150000  1.0
  H  H352  1  0.08270000  0.66560000  0.08950000  1.0
  H  H353  1  0.01100000  0.62540000  0.08360000  1.0
  H  H354  1  0.94660000  0.56610000  0.14790000  1.0
  H  H355  1  0.95380000  0.54720000  0.21820000  1.0
  H  H356  1  0.08740000  0.41220000  0.37800000  1.0
  H  H357  1  0.01720000  0.33540000  0.42580000  1.0
  H  H358  1  0.95350000  0.33520000  0.42590000  1.0
  H  H359  1  0.95980000  0.41170000  0.37830000  1.0
  H  H360  1  0.23240000  0.82830000  0.08030000  1.0
  H  H361  1  0.27270000  0.90860000  0.06990000  1.0
  H  H362  1  0.27190000  0.91220000  0.13210000  1.0
  H  H363  1  0.23100000  0.83600000  0.20440000  1.0
  H  H364  1  0.23380000  0.55460000  0.21780000  1.0
  H  H365  1  0.27420000  0.58630000  0.14730000  1.0
  H  H366  1  0.27350000  0.64850000  0.08260000  1.0
  H  H367  1  0.23230000  0.67900000  0.08850000  1.0
  H  H368  1  0.24810000  0.57610000  0.34880000  1.0
  H  H369  1  0.29290000  0.61640000  0.38030000  1.0
  H  H370  1  0.29150000  0.68050000  0.37880000  1.0
  H  H371  1  0.24550000  0.70430000  0.34580000  1.0
  H  H372  1  0.34480000  0.97680000  0.38620000  1.0
  H  H373  1  0.31930000  0.92910000  0.35580000  1.0
  H  H374  1  0.19110000  0.86110000  0.42320000  1.0
  H  H375  1  0.21680000  0.90880000  0.45360000  1.0
  H  H376  1  0.27540000  0.83430000  0.38370000  1.0
  H  H377  1  0.24980000  0.78710000  0.35330000  1.0
  H  H378  1  0.16810000  0.83220000  0.31530000  1.0
  H  H379  1  0.19370000  0.87940000  0.34570000  1.0
  H  H380  1  0.55040000  0.20000000  0.38720000  1.0
  H  H381  1  0.55780000  0.16910000  0.34630000  1.0
  H  H382  1  0.49380000  0.09940000  0.35160000  1.0
  H  H383  1  0.42230000  0.06080000  0.39770000  1.0
  H  H384  1  0.25510000  0.16560000  0.41710000  1.0
  H  H385  1  0.20900000  0.12540000  0.38560000  1.0
  H  H386  1  0.21400000  0.06610000  0.38050000  1.0
  H  H387  1  0.26540000  0.04720000  0.40660000  1.0
  H  H388  1  0.29020000  0.91220000  0.67520000  1.0
  H  H389  1  0.26120000  0.83540000  0.68180000  1.0
  H  H390  1  0.26110000  0.83520000  0.61830000  1.0
  H  H391  1  0.29000000  0.91170000  0.54810000  1.0
  H  H392  1  0.40860000  0.32830000  0.40410000  1.0
  H  H393  1  0.47850000  0.40860000  0.36410000  1.0
  H  H394  1  0.54430000  0.41220000  0.35970000  1.0
  H  H395  1  0.54040000  0.33600000  0.39500000  1.0
  H  H396  1  0.27240000  0.05460000  0.67920000  1.0
  H  H397  1  0.23360000  0.08630000  0.68790000  1.0
  H  H398  1  0.23110000  0.14850000  0.62500000  1.0
  H  H399  1  0.26750000  0.17900000  0.55330000  1.0
  H  H400  1  0.42490000  0.07610000  0.67200000  1.0
  H  H401  1  0.49670000  0.11640000  0.67650000  1.0
  H  H402  1  0.55930000  0.18050000  0.61100000  1.0
  H  H403  1  0.55010000  0.20430000  0.54120000  1.0
  H  H404  1  0.86300000  0.47680000  0.36800000  1.0
  H  H405  1  0.78490000  0.42910000  0.39020000  1.0
  H  H406  1  0.78430000  0.36110000  0.33000000  1.0
  H  H407  1  0.86240000  0.40880000  0.30800000  1.0
  H  H408  1  0.71800000  0.33430000  0.44110000  1.0
  H  H409  1  0.64040000  0.28710000  0.46270000  1.0
  H  H410  1  0.64750000  0.33220000  0.33590000  1.0
  H  H411  1  0.72510000  0.37940000  0.31430000  1.0
  H  H412  1  0.44960000  0.80000000  0.61280000  1.0
  H  H413  1  0.44220000  0.83090000  0.65370000  1.0
  H  H414  1  0.50620000  0.90060000  0.64840000  1.0
  H  H415  1  0.57770000  0.93920000  0.60230000  1.0
  H  H416  1  0.74490000  0.83440000  0.58290000  1.0
  H  H417  1  0.79100000  0.87460000  0.61440000  1.0
  H  H418  1  0.78600000  0.93390000  0.61950000  1.0
  H  H419  1  0.73460000  0.95280000  0.59340000  1.0
  H  H420  1  0.70980000  0.08780000  0.32480000  1.0
  H  H421  1  0.73880000  0.16460000  0.31820000  1.0
  H  H422  1  0.73890000  0.16480000  0.38170000  1.0
  H  H423  1  0.71000000  0.08830000  0.45190000  1.0
  H  H424  1  0.59140000  0.67170000  0.59590000  1.0
  H  H425  1  0.52150000  0.59140000  0.63590000  1.0
  H  H426  1  0.45570000  0.58780000  0.64030000  1.0
  H  H427  1  0.45960000  0.66400000  0.60500000  1.0
  H  H428  1  0.72760000  0.94540000  0.32080000  1.0
  H  H429  1  0.76640000  0.91370000  0.31210000  1.0
  H  H430  1  0.76890000  0.85150000  0.37500000  1.0
  H  H431  1  0.73250000  0.82100000  0.44670000  1.0
  H  H432  1  0.57510000  0.92390000  0.32800000  1.0
  H  H433  1  0.50330000  0.88360000  0.32350000  1.0
  H  H434  1  0.44070000  0.81950000  0.38900000  1.0
  H  H435  1  0.44990000  0.79570000  0.45880000  1.0
  H  H436  1  0.13700000  0.52320000  0.63200000  1.0
  H  H437  1  0.21510000  0.57090000  0.60980000  1.0
  H  H438  1  0.21570000  0.63890000  0.67000000  1.0
  H  H439  1  0.13760000  0.59120000  0.69200000  1.0
  H  H440  1  0.28200000  0.66570000  0.55890000  1.0
  H  H441  1  0.35960000  0.71290000  0.53730000  1.0
  H  H442  1  0.35250000  0.66780000  0.66410000  1.0
  H  H443  1  0.27490000  0.62060000  0.68570000  1.0
  H  H444  1  0.91280000  0.30000000  0.64960000  1.0
  H  H445  1  0.98460000  0.33090000  0.61130000  1.0
  H  H446  1  0.04900000  0.40060000  0.60560000  1.0
  H  H447  1  0.04150000  0.43920000  0.63850000  1.0
  H  H448  1  0.91730000  0.33440000  0.91050000  1.0
  H  H449  1  0.98900000  0.37460000  0.91640000  1.0
  H  H450  1  0.05340000  0.43390000  0.85210000  1.0
  H  H451  1  0.04620000  0.45280000  0.78180000  1.0
  H  H452  1  0.91260000  0.58780000  0.62200000  1.0
  H  H453  1  0.98280000  0.66460000  0.57420000  1.0
  H  H454  1  0.04650000  0.66480000  0.57410000  1.0
  H  H455  1  0.04020000  0.58830000  0.62170000  1.0
  H  H456  1  0.76760000  0.17170000  0.91970000  1.0
  H  H457  1  0.72730000  0.09140000  0.93010000  1.0
  H  H458  1  0.72810000  0.08780000  0.86790000  1.0
  H  H459  1  0.76900000  0.16400000  0.79560000  1.0
  H  H460  1  0.76620000  0.44540000  0.78220000  1.0
  H  H461  1  0.72580000  0.41370000  0.85270000  1.0
  H  H462  1  0.72650000  0.35150000  0.91740000  1.0
  H  H463  1  0.76770000  0.32100000  0.91150000  1.0
  H  H464  1  0.75190000  0.42390000  0.65120000  1.0
  H  H465  1  0.70710000  0.38360000  0.61970000  1.0
  H  H466  1  0.70850000  0.31950000  0.62120000  1.0
  H  H467  1  0.75450000  0.29570000  0.65420000  1.0
  H  H468  1  0.65520000  0.02320000  0.61380000  1.0
  H  H469  1  0.68070000  0.07090000  0.64420000  1.0
  H  H470  1  0.80890000  0.13890000  0.57680000  1.0
  H  H471  1  0.78320000  0.09120000  0.54640000  1.0
  H  H472  1  0.72460000  0.16570000  0.61630000  1.0
  H  H473  1  0.75020000  0.21290000  0.64670000  1.0
  H  H474  1  0.83190000  0.16780000  0.68470000  1.0
  H  H475  1  0.80630000  0.12060000  0.65430000  1.0
  C  C476  1  0.25736000  0.41574000  0.99760000  1.0
  C  C477  1  0.25729000  0.41417000  0.96004000  1.0
  C  C478  1  0.27630000  0.45989000  0.91693000  1.0
  C  C479  1  0.29536000  0.50723000  0.91143000  1.0
  C  C480  1  0.29543000  0.50879000  0.94904000  1.0
  C  C481  1  0.27642000  0.46305000  0.99215000  1.0
  C  C482  1  0.11647000  0.26090000  0.96723000  1.0
  C  C483  1  0.11122000  0.27780000  0.92478000  1.0
  C  C484  1  0.06800000  0.25600000  0.92160000  1.0
  C  C485  1  0.03010000  0.21750000  0.96060000  1.0
  C  C486  1  0.03524000  0.20060000  0.00296000  1.0
  C  C487  1  0.07842000  0.22230000  0.00628000  1.0
  C  C488  1  0.34560000  0.57680000  0.23140000  1.0
  C  C489  1  0.30417000  0.53060000  0.25383000  1.0
  C  C490  1  0.28962000  0.50120000  0.23738000  1.0
  C  C491  1  0.31640000  0.51790000  0.19850000  1.0
  C  C492  1  0.35782000  0.56420000  0.17598000  1.0
  C  C493  1  0.37237000  0.59360000  0.19243000  1.0
  C  C494  1  0.30125000  0.48670000  0.18105000  1.0
  C  C495  1  0.32330000  0.50850000  0.13780000  1.0
  C  C496  1  0.30936000  0.47950000  0.12094000  1.0
  C  C497  1  0.27337000  0.42870000  0.14733000  1.0
  C  C498  1  0.25130000  0.40690000  0.19060000  1.0
  C  C499  1  0.26526000  0.43590000  0.20744000  1.0
  C  C500  1  0.36144000  0.60810000  0.24866000  1.0
  C  C501  1  0.25920000  0.39890000  0.12930000  1.0
  C  C502  1  0.26594000  0.26854000  0.96400000  1.0
  C  C503  1  0.28890000  0.28680000  0.92130000  1.0
  C  C504  1  0.31430000  0.27190000  0.91180000  1.0
  C  C505  1  0.08513000  0.23065000  0.14582000  1.0
  C  C506  1  0.04308000  0.21279000  0.16991000  1.0
  C  C507  1  0.03526000  0.22860000  0.19534000  1.0
  C  C508  1  0.08666000  0.08426000  0.15838000  1.0
  C  C509  1  0.12579000  0.08583000  0.15688000  1.0
  C  C510  1  0.12318000  0.04011000  0.18359000  1.0
  C  C511  1  0.08134000  0.99277000  0.21187000  1.0
  C  C512  1  0.04217000  0.99121000  0.21336000  1.0
  C  C513  1  0.04480000  0.03695000  0.18663000  1.0
  C  C514  1  0.27187000  0.23910000  0.14443000  1.0
  C  C515  1  0.29742000  0.22220000  0.16658000  1.0
  C  C516  1  0.32240000  0.24400000  0.18800000  1.0
  C  C517  1  0.32190000  0.28250000  0.18740000  1.0
  C  C518  1  0.29644000  0.29940000  0.16536000  1.0
  C  C519  1  0.27142000  0.27770000  0.14388000  1.0
  C  C520  1  0.69180000  0.92320000  0.23120000  1.0
  C  C521  1  0.71557000  0.96940000  0.22643000  1.0
  C  C522  1  0.76142000  0.99880000  0.21158000  1.0
  C  C523  1  0.78360000  0.98210000  0.20150000  1.0
  C  C524  1  0.75982000  0.93580000  0.20638000  1.0
  C  C525  1  0.71397000  0.90640000  0.22123000  1.0
  C  C526  1  0.83225000  0.01330000  0.18545000  1.0
  C  C527  1  0.85370000  0.99150000  0.18520000  1.0
  C  C528  1  0.89956000  0.02050000  0.17014000  1.0
  C  C529  1  0.92397000  0.07130000  0.15533000  1.0
  C  C530  1  0.90250000  0.09310000  0.15560000  1.0
  C  C531  1  0.85666000  0.06410000  0.17064000  1.0
  C  C532  1  0.64324000  0.89190000  0.24666000  1.0
  C  C533  1  0.97180000  0.10110000  0.13970000  1.0
  C  C534  1  0.26746000  0.23146000  0.00260000  1.0
  C  C535  1  0.29190000  0.21320000  0.99790000  1.0
  C  C536  1  0.31630000  0.22810000  0.95760000  1.0
  C  C537  1  0.12353000  0.26935000  0.14552000  1.0
  C  C538  1  0.11730000  0.28721000  0.16971000  1.0
  C  C539  1  0.07606000  0.27140000  0.19334000  1.0
  C  C540  1  0.34162000  0.75496000  0.24264000  1.0
  C  C541  1  0.34312000  0.71733000  0.24271000  1.0
  C  C542  1  0.31641000  0.69323000  0.22370000  1.0
  C  C543  1  0.28813000  0.70679000  0.20464000  1.0
  C  C544  1  0.28664000  0.74447000  0.20457000  1.0
  C  C545  1  0.31337000  0.76857000  0.22358000  1.0
  C  C546  1  0.35557000  0.58370000  0.38353000  1.0
  C  C547  1  0.33342000  0.53600000  0.38878000  1.0
  C  C548  1  0.31200000  0.48960000  0.43200000  1.0
  C  C549  1  0.31260000  0.49070000  0.46990000  1.0
  C  C550  1  0.33464000  0.53820000  0.46476000  1.0
  C  C551  1  0.35612000  0.58470000  0.42158000  1.0
  C  C552  1  0.26880000  0.07700000  0.15440000  1.0
  C  C553  1  0.27357000  0.05800000  0.19583000  1.0
  C  C554  1  0.28842000  0.02700000  0.21038000  1.0
  C  C555  1  0.29850000  0.01490000  0.18360000  1.0
  C  C556  1  0.29362000  0.03380000  0.14218000  1.0
  C  C557  1  0.27877000  0.06480000  0.12763000  1.0
  C  C558  1  0.31455000  0.98230000  0.19875000  1.0
  C  C559  1  0.31480000  0.96110000  0.17670000  1.0
  C  C560  1  0.32986000  0.93030000  0.19064000  1.0
  C  C561  1  0.34467000  0.92070000  0.22663000  1.0
  C  C562  1  0.34440000  0.94190000  0.24870000  1.0
  C  C563  1  0.32936000  0.97270000  0.23474000  1.0
  C  C564  1  0.25334000  0.11010000  0.13856000  1.0
  C  C565  1  0.36030000  0.88850000  0.24080000  1.0
  C  C566  1  0.49740000  0.72994000  0.23406000  1.0
  C  C567  1  0.50210000  0.71020000  0.21110000  1.0
  C  C568  1  0.54240000  0.72610000  0.18570000  1.0
  C  C569  1  0.35448000  0.73095000  0.41487000  1.0
  C  C570  1  0.33029000  0.71299000  0.45692000  1.0
  C  C571  1  0.30666000  0.73060000  0.46474000  1.0
  C  C572  1  0.50240000  0.74504000  0.41334000  1.0
  C  C573  1  0.53996000  0.78267000  0.37421000  1.0
  C  C574  1  0.58307000  0.80677000  0.37682000  1.0
  C  C575  1  0.58857000  0.79321000  0.41866000  1.0
  C  C576  1  0.55096000  0.75553000  0.45783000  1.0
  C  C577  1  0.50785000  0.73143000  0.45520000  1.0
  C  C578  1  0.53277000  0.91630000  0.22813000  1.0
  C  C579  1  0.57522000  0.96400000  0.20258000  1.0
  C  C580  1  0.57840000  0.01040000  0.17760000  1.0
  C  C581  1  0.53940000  0.00930000  0.17810000  1.0
  C  C582  1  0.49704000  0.96180000  0.20356000  1.0
  C  C583  1  0.49372000  0.91530000  0.22858000  1.0
  C  C584  1  0.26860000  0.42300000  0.80820000  1.0
  C  C585  1  0.24617000  0.44200000  0.78443000  1.0
  C  C586  1  0.26262000  0.47300000  0.73858000  1.0
  C  C587  1  0.30150000  0.48510000  0.71640000  1.0
  C  C588  1  0.32402000  0.46620000  0.74018000  1.0
  C  C589  1  0.30757000  0.43520000  0.78603000  1.0
  C  C590  1  0.31895000  0.51770000  0.66775000  1.0
  C  C591  1  0.36220000  0.53890000  0.64630000  1.0
  C  C592  1  0.37906000  0.56970000  0.60044000  1.0
  C  C593  1  0.35267000  0.57930000  0.57603000  1.0
  C  C594  1  0.30940000  0.55810000  0.59750000  1.0
  C  C595  1  0.29256000  0.52730000  0.64334000  1.0
  C  C596  1  0.25134000  0.38990000  0.85676000  1.0
  C  C597  1  0.37070000  0.61150000  0.52820000  1.0
  C  C598  1  0.53600000  0.77006000  0.23254000  1.0
  C  C599  1  0.57870000  0.78980000  0.20810000  1.0
  C  C600  1  0.58820000  0.77390000  0.18370000  1.0
  C  C601  1  0.35418000  0.76905000  0.37647000  1.0
  C  C602  1  0.33009000  0.78701000  0.38270000  1.0
  C  C603  1  0.30466000  0.76940000  0.42394000  1.0
  C  C604  1  0.74264000  0.58426000  0.00240000  1.0
  C  C605  1  0.74271000  0.58583000  0.03996000  1.0
  C  C606  1  0.72370000  0.54011000  0.08307000  1.0
  C  C607  1  0.70464000  0.49277000  0.08857000  1.0
  C  C608  1  0.70457000  0.49121000  0.05096000  1.0
  C  C609  1  0.72358000  0.53695000  0.00785000  1.0
  C  C610  1  0.88353000  0.73910000  0.03277000  1.0
  C  C611  1  0.88878000  0.72220000  0.07522000  1.0
  C  C612  1  0.93200000  0.74400000  0.07840000  1.0
  C  C613  1  0.96990000  0.78250000  0.03940000  1.0
  C  C614  1  0.96476000  0.79940000  0.99704000  1.0
  C  C615  1  0.92158000  0.77770000  0.99372000  1.0
  C  C616  1  0.65440000  0.42320000  0.76860000  1.0
  C  C617  1  0.69583000  0.46940000  0.74617000  1.0
  C  C618  1  0.71038000  0.49880000  0.76262000  1.0
  C  C619  1  0.68360000  0.48210000  0.80150000  1.0
  C  C620  1  0.64218000  0.43580000  0.82402000  1.0
  C  C621  1  0.62763000  0.40640000  0.80757000  1.0
  C  C622  1  0.69875000  0.51330000  0.81895000  1.0
  C  C623  1  0.67670000  0.49150000  0.86220000  1.0
  C  C624  1  0.69064000  0.52050000  0.87906000  1.0
  C  C625  1  0.72663000  0.57130000  0.85267000  1.0
  C  C626  1  0.74870000  0.59310000  0.80940000  1.0
  C  C627  1  0.73474000  0.56410000  0.79256000  1.0
  C  C628  1  0.63856000  0.39190000  0.75134000  1.0
  C  C629  1  0.74080000  0.60110000  0.87070000  1.0
  C  C630  1  0.73406000  0.73146000  0.03600000  1.0
  C  C631  1  0.71110000  0.71320000  0.07870000  1.0
  C  C632  1  0.68570000  0.72810000  0.08820000  1.0
  C  C633  1  0.91487000  0.76935000  0.85418000  1.0
  C  C634  1  0.95692000  0.78721000  0.83009000  1.0
  C  C635  1  0.96474000  0.77140000  0.80466000  1.0
  C  C636  1  0.91334000  0.91574000  0.84162000  1.0
  C  C637  1  0.87421000  0.91417000  0.84312000  1.0
  C  C638  1  0.87682000  0.95989000  0.81641000  1.0
  C  C639  1  0.91866000  0.00723000  0.78813000  1.0
  C  C640  1  0.95783000  0.00879000  0.78664000  1.0
  C  C641  1  0.95520000  0.96305000  0.81337000  1.0
  C  C642  1  0.72813000  0.76090000  0.85557000  1.0
  C  C643  1  0.70258000  0.77780000  0.83342000  1.0
  C  C644  1  0.67760000  0.75600000  0.81200000  1.0
  C  C645  1  0.67810000  0.71750000  0.81260000  1.0
  C  C646  1  0.70356000  0.70060000  0.83464000  1.0
  C  C647  1  0.72858000  0.72230000  0.85612000  1.0
  C  C648  1  0.30820000  0.07680000  0.76880000  1.0
  C  C649  1  0.28443000  0.03060000  0.77357000  1.0
  C  C650  1  0.23858000  0.00120000  0.78842000  1.0
  C  C651  1  0.21640000  0.01790000  0.79850000  1.0
  C  C652  1  0.24018000  0.06420000  0.79362000  1.0
  C  C653  1  0.28603000  0.09360000  0.77877000  1.0
  C  C654  1  0.16775000  0.98670000  0.81455000  1.0
  C  C655  1  0.14630000  0.00850000  0.81480000  1.0
  C  C656  1  0.10044000  0.97950000  0.82986000  1.0
  C  C657  1  0.07603000  0.92870000  0.84467000  1.0
  C  C658  1  0.09750000  0.90690000  0.84440000  1.0
  C  C659  1  0.14334000  0.93590000  0.82936000  1.0
  C  C660  1  0.35676000  0.10810000  0.75334000  1.0
  C  C661  1  0.02820000  0.89890000  0.86030000  1.0
  C  C662  1  0.73254000  0.76854000  0.99740000  1.0
  C  C663  1  0.70810000  0.78680000  0.00210000  1.0
  C  C664  1  0.68370000  0.77190000  0.04240000  1.0
  C  C665  1  0.87647000  0.73065000  0.85448000  1.0
  C  C666  1  0.88270000  0.71279000  0.83029000  1.0
  C  C667  1  0.92394000  0.72860000  0.80666000  1.0
  C  C668  1  0.65838000  0.24504000  0.75736000  1.0
  C  C669  1  0.65688000  0.28267000  0.75729000  1.0
  C  C670  1  0.68359000  0.30677000  0.77630000  1.0
  C  C671  1  0.71187000  0.29321000  0.79536000  1.0
  C  C672  1  0.71336000  0.25553000  0.79543000  1.0
  C  C673  1  0.68663000  0.23143000  0.77642000  1.0
  C  C674  1  0.64443000  0.41630000  0.61647000  1.0
  C  C675  1  0.66658000  0.46400000  0.61122000  1.0
  C  C676  1  0.68800000  0.51040000  0.56800000  1.0
  C  C677  1  0.68740000  0.50930000  0.53010000  1.0
  C  C678  1  0.66536000  0.46180000  0.53524000  1.0
  C  C679  1  0.64388000  0.41530000  0.57842000  1.0
  C  C680  1  0.73120000  0.92300000  0.84560000  1.0
  C  C681  1  0.72643000  0.94200000  0.80417000  1.0
  C  C682  1  0.71158000  0.97300000  0.78962000  1.0
  C  C683  1  0.70150000  0.98510000  0.81640000  1.0
  C  C684  1  0.70638000  0.96620000  0.85782000  1.0
  C  C685  1  0.72123000  0.93520000  0.87237000  1.0
  C  C686  1  0.68545000  0.01770000  0.80125000  1.0
  C  C687  1  0.68520000  0.03890000  0.82330000  1.0
  C  C688  1  0.67014000  0.06970000  0.80936000  1.0
  C  C689  1  0.65533000  0.07930000  0.77337000  1.0
  C  C690  1  0.65560000  0.05810000  0.75130000  1.0
  C  C691  1  0.67064000  0.02730000  0.76526000  1.0
  C  C692  1  0.74666000  0.88990000  0.86144000  1.0
  C  C693  1  0.63970000  0.11150000  0.75920000  1.0
  C  C694  1  0.50260000  0.27006000  0.76594000  1.0
  C  C695  1  0.49790000  0.28980000  0.78890000  1.0
  C  C696  1  0.45760000  0.27390000  0.81430000  1.0
  C  C697  1  0.64552000  0.26905000  0.58513000  1.0
  C  C698  1  0.66971000  0.28701000  0.54308000  1.0
  C  C699  1  0.69334000  0.26940000  0.53526000  1.0
  C  C700  1  0.49760000  0.25496000  0.58666000  1.0
  C  C701  1  0.46004000  0.21733000  0.62579000  1.0
  C  C702  1  0.41693000  0.19323000  0.62318000  1.0
  C  C703  1  0.41143000  0.20679000  0.58134000  1.0
  C  C704  1  0.44904000  0.24447000  0.54217000  1.0
  C  C705  1  0.49215000  0.26857000  0.54480000  1.0
  C  C706  1  0.46723000  0.08370000  0.77187000  1.0
  C  C707  1  0.42478000  0.03600000  0.79742000  1.0
  C  C708  1  0.42160000  0.98960000  0.82240000  1.0
  C  C709  1  0.46060000  0.99070000  0.82190000  1.0
  C  C710  1  0.50296000  0.03820000  0.79644000  1.0
  C  C711  1  0.50628000  0.08470000  0.77142000  1.0
  C  C712  1  0.73140000  0.57700000  0.19180000  1.0
  C  C713  1  0.75383000  0.55800000  0.21557000  1.0
  C  C714  1  0.73738000  0.52700000  0.26142000  1.0
  C  C715  1  0.69850000  0.51490000  0.28360000  1.0
  C  C716  1  0.67598000  0.53380000  0.25982000  1.0
  C  C717  1  0.69243000  0.56480000  0.21397000  1.0
  C  C718  1  0.68105000  0.48230000  0.33225000  1.0
  C  C719  1  0.63780000  0.46110000  0.35370000  1.0
  C  C720  1  0.62094000  0.43030000  0.39956000  1.0
  C  C721  1  0.64733000  0.42070000  0.42397000  1.0
  C  C722  1  0.69060000  0.44190000  0.40250000  1.0
  C  C723  1  0.70744000  0.47270000  0.35666000  1.0
  C  C724  1  0.74866000  0.61010000  0.14324000  1.0
  C  C725  1  0.62930000  0.38850000  0.47180000  1.0
  C  C726  1  0.46400000  0.22994000  0.76746000  1.0
  C  C727  1  0.42130000  0.21020000  0.79190000  1.0
  C  C728  1  0.41180000  0.22610000  0.81630000  1.0
  C  C729  1  0.64582000  0.23095000  0.62353000  1.0
  C  C730  1  0.66991000  0.21299000  0.61730000  1.0
  C  C731  1  0.69534000  0.23060000  0.57606000  1.0
  C  C732  1  0.16373000  0.63640000  0.94347000  1.0
  C  C733  1  0.16712000  0.60110000  0.98198000  1.0
  C  C734  1  0.14740000  0.58590000  0.02490000  1.0
  C  C735  1  0.12430000  0.60600000  0.02930000  1.0
  C  C736  1  0.12090000  0.64130000  0.99080000  1.0
  C  C737  1  0.14060000  0.65650000  0.94790000  1.0
  C  C738  1  0.30390000  0.78120000  0.79110000  1.0
  C  C739  1  0.34260000  0.78120000  0.78800000  1.0
  C  C740  1  0.38485000  0.82780000  0.75715000  1.0
  C  C741  1  0.38850000  0.87450000  0.72940000  1.0
  C  C742  1  0.34970000  0.87460000  0.73250000  1.0
  C  C743  1  0.30751000  0.82800000  0.76329000  1.0
  C  C744  1  0.15024000  0.62280000  0.80736000  1.0
  C  C745  1  0.15030000  0.58490000  0.80740000  1.0
  C  C746  1  0.12190000  0.56030000  0.79020000  1.0
  C  C747  1  0.09346000  0.57370000  0.77284000  1.0
  C  C748  1  0.09340000  0.61160000  0.77280000  1.0
  C  C749  1  0.12179000  0.63620000  0.79001000  1.0
  C  C750  1  0.31420000  0.60700000  0.97220000  1.0
  C  C751  1  0.35140000  0.64380000  0.93280000  1.0
  C  C752  1  0.39480000  0.66270000  0.93510000  1.0
  C  C753  1  0.40100000  0.64470000  0.97690000  1.0
  C  C754  1  0.36380000  0.60810000  0.01630000  1.0
  C  C755  1  0.32044000  0.58920000  0.01396000  1.0
  C  C756  1  0.34334000  0.63490000  0.79176000  1.0
  C  C757  1  0.30460000  0.59573000  0.79327000  1.0
  C  C758  1  0.30820000  0.57470000  0.77150000  1.0
  C  C759  1  0.35032000  0.59270000  0.74818000  1.0
  C  C760  1  0.38904000  0.63180000  0.74676000  1.0
  C  C761  1  0.38550000  0.65280000  0.76850000  1.0
  C  C762  1  0.17244000  0.45324000  0.98194000  1.0
  C  C763  1  0.17152000  0.45152000  0.94452000  1.0
  C  C764  1  0.15179000  0.40419000  0.95006000  1.0
  C  C765  1  0.13297000  0.35859000  0.99302000  1.0
  C  C766  1  0.13389000  0.36034000  0.03043000  1.0
  C  C767  1  0.15361000  0.40762000  0.02491000  1.0
  C  C768  1  0.07713000  0.29384000  0.37031000  1.0
  C  C769  1  0.10640000  0.29246000  0.34714000  1.0
  C  C770  1  0.12461000  0.32590000  0.30049000  1.0
  C  C771  1  0.11350000  0.36080000  0.27690000  1.0
  C  C772  1  0.08428000  0.36220000  0.30012000  1.0
  C  C773  1  0.06609000  0.32870000  0.34681000  1.0
  C  C774  1  0.13238000  0.39535000  0.22899000  1.0
  C  C775  1  0.13010000  0.37640000  0.20370000  1.0
  C  C776  1  0.14830000  0.40980000  0.15750000  1.0
  C  C777  1  0.16872000  0.46220000  0.13648000  1.0
  C  C778  1  0.17096000  0.48110000  0.16174000  1.0
  C  C779  1  0.15276000  0.44770000  0.20794000  1.0
  C  C780  1  0.05864000  0.25975000  0.41831000  1.0
  C  C781  1  0.18702000  0.49640000  0.08858000  1.0
  C  C782  1  0.07987000  0.13640000  0.52733000  1.0
  C  C783  1  0.08308000  0.10110000  0.56602000  1.0
  C  C784  1  0.11080000  0.08590000  0.56150000  1.0
  C  C785  1  0.13530000  0.10600000  0.51830000  1.0
  C  C786  1  0.13210000  0.14130000  0.47960000  1.0
  C  C787  1  0.10440000  0.15650000  0.48410000  1.0
  C  C788  1  0.07230000  0.28120000  0.52270000  1.0
  C  C789  1  0.06920000  0.28120000  0.56140000  1.0
  C  C790  1  0.08495000  0.32780000  0.55705000  1.0
  C  C791  1  0.10390000  0.37450000  0.51400000  1.0
  C  C792  1  0.10710000  0.37460000  0.47510000  1.0
  C  C793  1  0.09129000  0.32800000  0.47951000  1.0
  C  C794  1  0.93016000  0.12280000  0.52744000  1.0
  C  C795  1  0.89230000  0.08490000  0.56540000  1.0
  C  C796  1  0.85050000  0.06030000  0.56160000  1.0
  C  C797  1  0.84654000  0.07370000  0.51976000  1.0
  C  C798  1  0.88440000  0.11160000  0.48180000  1.0
  C  C799  1  0.92621000  0.13620000  0.48559000  1.0
  C  C800  1  0.07920000  0.10700000  0.70720000  1.0
  C  C801  1  0.07660000  0.14380000  0.70760000  1.0
  C  C802  1  0.09780000  0.16270000  0.73210000  1.0
  C  C803  1  0.12160000  0.14470000  0.75630000  1.0
  C  C804  1  0.12440000  0.10810000  0.75570000  1.0
  C  C805  1  0.10316000  0.08920000  0.73124000  1.0
  C  C806  1  0.92666000  0.13490000  0.70844000  1.0
  C  C807  1  0.88900000  0.09573000  0.70887000  1.0
  C  C808  1  0.84620000  0.07470000  0.73350000  1.0
  C  C809  1  0.84088000  0.09270000  0.75762000  1.0
  C  C810  1  0.87856000  0.13180000  0.75724000  1.0
  C  C811  1  0.92130000  0.15280000  0.73270000  1.0
  C  C812  1  0.93518000  0.95324000  0.71920000  1.0
  C  C813  1  0.89604000  0.95152000  0.72000000  1.0
  C  C814  1  0.85425000  0.90419000  0.74760000  1.0
  C  C815  1  0.85161000  0.85859000  0.77438000  1.0
  C  C816  1  0.89077000  0.86034000  0.77355000  1.0
  C  C817  1  0.93253000  0.90762000  0.74599000  1.0
  C  C818  1  0.16415000  0.79384000  0.78329000  1.0
  C  C819  1  0.13960000  0.79246000  0.81394000  1.0
  C  C820  1  0.12639000  0.82590000  0.79871000  1.0
  C  C821  1  0.13770000  0.86080000  0.75270000  1.0
  C  C822  1  0.16232000  0.86220000  0.72208000  1.0
  C  C823  1  0.17551000  0.82870000  0.73739000  1.0
  C  C824  1  0.12434000  0.89535000  0.73703000  1.0
  C  C825  1  0.08010000  0.87640000  0.75370000  1.0
  C  C826  1  0.06730000  0.90980000  0.73850000  1.0
  C  C827  1  0.09868000  0.96220000  0.70652000  1.0
  C  C828  1  0.14284000  0.98110000  0.68986000  1.0
  C  C829  1  0.15564000  0.94770000  0.70506000  1.0
  C  C830  1  0.17806000  0.75975000  0.79889000  1.0
  C  C831  1  0.08498000  0.99640000  0.69062000  1.0
  C  C832  1  0.92013000  0.86360000  0.47267000  1.0
  C  C833  1  0.91692000  0.89890000  0.43398000  1.0
  C  C834  1  0.88920000  0.91410000  0.43850000  1.0
  C  C835  1  0.86470000  0.89400000  0.48170000  1.0
  C  C836  1  0.86790000  0.85870000  0.52040000  1.0
  C  C837  1  0.89560000  0.84350000  0.51590000  1.0
  C  C838  1  0.92770000  0.71880000  0.47730000  1.0
  C  C839  1  0.93080000  0.71880000  0.43860000  1.0
  C  C840  1  0.91505000  0.67220000  0.44295000  1.0
  C  C841  1  0.89610000  0.62550000  0.48600000  1.0
  C  C842  1  0.89290000  0.62540000  0.52490000  1.0
  C  C843  1  0.90871000  0.67200000  0.52049000  1.0
  C  C844  1  0.06984000  0.87720000  0.47256000  1.0
  C  C845  1  0.10770000  0.91510000  0.43460000  1.0
  C  C846  1  0.14950000  0.93970000  0.43840000  1.0
  C  C847  1  0.15346000  0.92630000  0.48024000  1.0
  C  C848  1  0.11560000  0.88840000  0.51820000  1.0
  C  C849  1  0.07379000  0.86380000  0.51441000  1.0
  C  C850  1  0.92080000  0.89300000  0.29280000  1.0
  C  C851  1  0.92340000  0.85620000  0.29240000  1.0
  C  C852  1  0.90220000  0.83730000  0.26790000  1.0
  C  C853  1  0.87840000  0.85530000  0.24370000  1.0
  C  C854  1  0.87560000  0.89190000  0.24430000  1.0
  C  C855  1  0.89684000  0.91080000  0.26876000  1.0
  C  C856  1  0.07334000  0.86510000  0.29156000  1.0
  C  C857  1  0.11100000  0.90427000  0.29113000  1.0
  C  C858  1  0.15380000  0.92530000  0.26650000  1.0
  C  C859  1  0.15912000  0.90730000  0.24238000  1.0
  C  C860  1  0.12144000  0.86820000  0.24276000  1.0
  C  C861  1  0.07870000  0.84720000  0.26730000  1.0
  C  C862  1  0.06482000  0.04676000  0.28080000  1.0
  C  C863  1  0.10396000  0.04848000  0.28000000  1.0
  C  C864  1  0.14575000  0.09581000  0.25240000  1.0
  C  C865  1  0.14839000  0.14141000  0.22562000  1.0
  C  C866  1  0.10923000  0.13966000  0.22645000  1.0
  C  C867  1  0.06747000  0.09238000  0.25401000  1.0
  C  C868  1  0.83585000  0.20616000  0.21671000  1.0
  C  C869  1  0.86040000  0.20754000  0.18606000  1.0
  C  C870  1  0.87361000  0.17410000  0.20129000  1.0
  C  C871  1  0.86230000  0.13920000  0.24730000  1.0
  C  C872  1  0.83768000  0.13780000  0.27792000  1.0
  C  C873  1  0.82449000  0.17130000  0.26261000  1.0
  C  C874  1  0.87566000  0.10465000  0.26297000  1.0
  C  C875  1  0.91990000  0.12360000  0.24630000  1.0
  C  C876  1  0.93270000  0.09020000  0.26150000  1.0
  C  C877  1  0.90132000  0.03780000  0.29348000  1.0
  C  C878  1  0.85716000  0.01890000  0.31014000  1.0
  C  C879  1  0.84436000  0.05230000  0.29494000  1.0
  C  C880  1  0.82194000  0.24025000  0.20111000  1.0
  C  C881  1  0.91502000  0.00360000  0.30938000  1.0
  C  C882  1  0.83627000  0.36360000  0.05653000  1.0
  C  C883  1  0.83288000  0.39890000  0.01802000  1.0
  C  C884  1  0.85260000  0.41410000  0.97510000  1.0
  C  C885  1  0.87570000  0.39400000  0.97070000  1.0
  C  C886  1  0.87910000  0.35870000  0.00920000  1.0
  C  C887  1  0.85940000  0.34350000  0.05210000  1.0
  C  C888  1  0.69610000  0.21880000  0.20890000  1.0
  C  C889  1  0.65740000  0.21880000  0.21200000  1.0
  C  C890  1  0.61515000  0.17220000  0.24285000  1.0
  C  C891  1  0.61150000  0.12550000  0.27060000  1.0
  C  C892  1  0.65030000  0.12540000  0.26750000  1.0
  C  C893  1  0.69249000  0.17200000  0.23671000  1.0
  C  C894  1  0.84976000  0.37720000  0.19264000  1.0
  C  C895  1  0.84970000  0.41510000  0.19260000  1.0
  C  C896  1  0.87810000  0.43970000  0.20980000  1.0
  C  C897  1  0.90654000  0.42630000  0.22716000  1.0
  C  C898  1  0.90660000  0.38840000  0.22720000  1.0
  C  C899  1  0.87821000  0.36380000  0.20999000  1.0
  C  C900  1  0.68580000  0.39300000  0.02780000  1.0
  C  C901  1  0.64860000  0.35620000  0.06720000  1.0
  C  C902  1  0.60520000  0.33730000  0.06490000  1.0
  C  C903  1  0.59900000  0.35530000  0.02310000  1.0
  C  C904  1  0.63620000  0.39190000  0.98370000  1.0
  C  C905  1  0.67956000  0.41080000  0.98604000  1.0
  C  C906  1  0.65666000  0.36510000  0.20824000  1.0
  C  C907  1  0.69540000  0.40427000  0.20673000  1.0
  C  C908  1  0.69180000  0.42530000  0.22850000  1.0
  C  C909  1  0.64968000  0.40730000  0.25182000  1.0
  C  C910  1  0.61096000  0.36820000  0.25324000  1.0
  C  C911  1  0.61450000  0.34720000  0.23150000  1.0
  C  C912  1  0.82756000  0.54676000  0.01806000  1.0
  C  C913  1  0.82848000  0.54848000  0.05548000  1.0
  C  C914  1  0.84821000  0.59581000  0.04994000  1.0
  C  C915  1  0.86703000  0.64141000  0.00698000  1.0
  C  C916  1  0.86611000  0.63966000  0.96957000  1.0
  C  C917  1  0.84639000  0.59238000  0.97509000  1.0
  C  C918  1  0.92287000  0.70616000  0.62969000  1.0
  C  C919  1  0.89360000  0.70754000  0.65286000  1.0
  C  C920  1  0.87539000  0.67410000  0.69951000  1.0
  C  C921  1  0.88650000  0.63920000  0.72310000  1.0
  C  C922  1  0.91572000  0.63780000  0.69988000  1.0
  C  C923  1  0.93391000  0.67130000  0.65319000  1.0
  C  C924  1  0.86762000  0.60465000  0.77101000  1.0
  C  C925  1  0.86990000  0.62360000  0.79630000  1.0
  C  C926  1  0.85170000  0.59020000  0.84250000  1.0
  C  C927  1  0.83128000  0.53780000  0.86352000  1.0
  C  C928  1  0.82904000  0.51890000  0.83826000  1.0
  C  C929  1  0.84724000  0.55230000  0.79206000  1.0
  C  C930  1  0.94136000  0.74025000  0.58169000  1.0
  C  C931  1  0.81298000  0.50360000  0.91142000  1.0
  C  C932  1  0.02733000  0.60720000  0.33627000  1.0
  C  C933  1  0.06602000  0.64910000  0.33288000  1.0
  C  C934  1  0.06150000  0.67230000  0.35260000  1.0
  C  C935  1  0.01830000  0.65360000  0.37570000  1.0
  C  C936  1  0.97960000  0.61170000  0.37910000  1.0
  C  C937  1  0.98410000  0.58850000  0.35940000  1.0
  C  C938  1  0.02270000  0.59500000  0.19610000  1.0
  C  C939  1  0.06140000  0.63060000  0.15740000  1.0
  C  C940  1  0.05705000  0.64200000  0.11515000  1.0
  C  C941  1  0.01400000  0.61790000  0.11150000  1.0
  C  C942  1  0.97510000  0.58220000  0.15030000  1.0
  C  C943  1  0.97951000  0.57080000  0.19249000  1.0
  C  C944  1  0.02744000  0.45760000  0.34976000  1.0
  C  C945  1  0.06540000  0.45770000  0.34970000  1.0
  C  C946  1  0.06160000  0.41210000  0.37810000  1.0
  C  C947  1  0.01976000  0.36630000  0.40654000  1.0
  C  C948  1  0.98180000  0.36620000  0.40660000  1.0
  C  C949  1  0.98559000  0.41180000  0.37821000  1.0
  C  C950  1  0.20720000  0.78640000  0.18580000  1.0
  C  C951  1  0.20760000  0.78420000  0.14860000  1.0
  C  C952  1  0.23210000  0.82990000  0.10520000  1.0
  C  C953  1  0.25630000  0.87790000  0.09900000  1.0
  C  C954  1  0.25570000  0.88010000  0.13620000  1.0
  C  C955  1  0.23124000  0.83440000  0.17956000  1.0
  C  C956  1  0.20844000  0.63510000  0.15666000  1.0
  C  C957  1  0.20887000  0.59787000  0.19540000  1.0
  C  C958  1  0.23350000  0.57970000  0.19180000  1.0
  C  C959  1  0.25762000  0.59850000  0.14968000  1.0
  C  C960  1  0.25724000  0.63580000  0.11096000  1.0
  C  C961  1  0.23270000  0.65400000  0.11450000  1.0
  C  C962  1  0.21920000  0.65438000  0.32756000  1.0
  C  C963  1  0.22000000  0.61604000  0.32848000  1.0
  C  C964  1  0.24760000  0.60185000  0.34821000  1.0
  C  C965  1  0.27438000  0.62599000  0.36703000  1.0
  C  C966  1  0.27355000  0.66432000  0.36611000  1.0
  C  C967  1  0.24599000  0.67852000  0.34639000  1.0
  C  C968  1  0.28329000  0.94744000  0.42287000  1.0
  C  C969  1  0.31394000  0.95354000  0.39360000  1.0
  C  C970  1  0.29871000  0.92510000  0.37539000  1.0
  C  C971  1  0.25270000  0.89040000  0.38650000  1.0
  C  C972  1  0.22208000  0.88440000  0.41572000  1.0
  C  C973  1  0.23739000  0.91290000  0.43391000  1.0
  C  C974  1  0.23703000  0.86137000  0.36762000  1.0
  C  C975  1  0.25370000  0.83380000  0.36990000  1.0
  C  C976  1  0.23850000  0.80580000  0.35170000  1.0
  C  C977  1  0.20652000  0.80520000  0.33128000  1.0
  C  C978  1  0.18986000  0.83270000  0.32904000  1.0
  C  C979  1  0.20506000  0.86070000  0.34724000  1.0
  C  C980  1  0.29889000  0.97695000  0.44136000  1.0
  C  C981  1  0.19062000  0.77560000  0.31298000  1.0
  C  C982  1  0.44347000  0.10720000  0.42013000  1.0
  C  C983  1  0.48198000  0.14910000  0.41692000  1.0
  C  C984  1  0.52490000  0.17230000  0.38920000  1.0
  C  C985  1  0.52930000  0.15360000  0.36470000  1.0
  C  C986  1  0.49080000  0.11170000  0.36790000  1.0
  C  C987  1  0.44790000  0.08850000  0.39560000  1.0
  C  C988  1  0.29110000  0.09500000  0.42770000  1.0
  C  C989  1  0.28800000  0.13060000  0.43080000  1.0
  C  C990  1  0.25715000  0.14200000  0.41505000  1.0
  C  C991  1  0.22940000  0.11790000  0.39610000  1.0
  C  C992  1  0.23250000  0.08220000  0.39290000  1.0
  C  C993  1  0.26329000  0.07080000  0.40871000  1.0
  C  C994  1  0.30736000  0.95760000  0.56984000  1.0
  C  C995  1  0.30740000  0.95770000  0.60770000  1.0
  C  C996  1  0.29020000  0.91210000  0.64950000  1.0
  C  C997  1  0.27284000  0.86630000  0.65346000  1.0
  C  C998  1  0.27280000  0.86620000  0.61560000  1.0
  C  C999  1  0.29001000  0.91180000  0.57379000  1.0
  C  C1000  1  0.47220000  0.28640000  0.42080000  1.0
  C  C1001  1  0.43280000  0.28420000  0.42340000  1.0
  C  C1002  1  0.43510000  0.32990000  0.40220000  1.0
  C  C1003  1  0.47690000  0.37790000  0.37840000  1.0
  C  C1004  1  0.51630000  0.38010000  0.37560000  1.0
  C  C1005  1  0.51396000  0.33440000  0.39684000  1.0
  C  C1006  1  0.29176000  0.13510000  0.57334000  1.0
  C  C1007  1  0.29327000  0.09787000  0.61100000  1.0
  C  C1008  1  0.27150000  0.07970000  0.65380000  1.0
  C  C1009  1  0.24818000  0.09850000  0.65912000  1.0
  C  C1010  1  0.24676000  0.13580000  0.62144000  1.0
  C  C1011  1  0.26850000  0.15400000  0.57870000  1.0
  C  C1012  1  0.48194000  0.15438000  0.56482000  1.0
  C  C1013  1  0.44452000  0.11604000  0.60396000  1.0
  C  C1014  1  0.45006000  0.10185000  0.64575000  1.0
  C  C1015  1  0.49302000  0.12599000  0.64839000  1.0
  C  C1016  1  0.53043000  0.16432000  0.60923000  1.0
  C  C1017  1  0.52491000  0.17852000  0.56747000  1.0
  C  C1018  1  0.87031000  0.44744000  0.33585000  1.0
  C  C1019  1  0.84714000  0.45354000  0.36040000  1.0
  C  C1020  1  0.80049000  0.42510000  0.37361000  1.0
  C  C1021  1  0.77690000  0.39040000  0.36230000  1.0
  C  C1022  1  0.80012000  0.38440000  0.33768000  1.0
  C  C1023  1  0.84681000  0.41290000  0.32449000  1.0
  C  C1024  1  0.72899000  0.36137000  0.37566000  1.0
  C  C1025  1  0.70370000  0.33380000  0.41990000  1.0
  C  C1026  1  0.65750000  0.30580000  0.43270000  1.0
  C  C1027  1  0.63648000  0.30520000  0.40132000  1.0
  C  C1028  1  0.66174000  0.33270000  0.35716000  1.0
  C  C1029  1  0.70794000  0.36070000  0.34436000  1.0
  C  C1030  1  0.91831000  0.47695000  0.32194000  1.0
  C  C1031  1  0.58858000  0.27560000  0.41502000  1.0
  C  C1032  1  0.55653000  0.89280000  0.57987000  1.0
  C  C1033  1  0.51802000  0.85090000  0.58308000  1.0
  C  C1034  1  0.47510000  0.82770000  0.61080000  1.0
  C  C1035  1  0.47070000  0.84640000  0.63530000  1.0
  C  C1036  1  0.50920000  0.88830000  0.63210000  1.0
  C  C1037  1  0.55210000  0.91150000  0.60440000  1.0
  C  C1038  1  0.70890000  0.90500000  0.57230000  1.0
  C  C1039  1  0.71200000  0.86940000  0.56920000  1.0
  C  C1040  1  0.74285000  0.85800000  0.58495000  1.0
  C  C1041  1  0.77060000  0.88210000  0.60390000  1.0
  C  C1042  1  0.76750000  0.91780000  0.60710000  1.0
  C  C1043  1  0.73671000  0.92920000  0.59129000  1.0
  C  C1044  1  0.69264000  0.04240000  0.43016000  1.0
  C  C1045  1  0.69260000  0.04230000  0.39230000  1.0
  C  C1046  1  0.70980000  0.08790000  0.35050000  1.0
  C  C1047  1  0.72716000  0.13370000  0.34654000  1.0
  C  C1048  1  0.72720000  0.13380000  0.38440000  1.0
  C  C1049  1  0.70999000  0.08820000  0.42621000  1.0
  C  C1050  1  0.52780000  0.71360000  0.57920000  1.0
  C  C1051  1  0.56720000  0.71580000  0.57660000  1.0
  C  C1052  1  0.56490000  0.67010000  0.59780000  1.0
  C  C1053  1  0.52310000  0.62210000  0.62160000  1.0
  C  C1054  1  0.48370000  0.61990000  0.62440000  1.0
  C  C1055  1  0.48604000  0.66560000  0.60316000  1.0
  C  C1056  1  0.70824000  0.86490000  0.42666000  1.0
  C  C1057  1  0.70673000  0.90213000  0.38900000  1.0
  C  C1058  1  0.72850000  0.92030000  0.34620000  1.0
  C  C1059  1  0.75182000  0.90150000  0.34088000  1.0
  C  C1060  1  0.75324000  0.86420000  0.37856000  1.0
  C  C1061  1  0.73150000  0.84600000  0.42130000  1.0
  C  C1062  1  0.51806000  0.84562000  0.43518000  1.0
  C  C1063  1  0.55548000  0.88396000  0.39604000  1.0
  C  C1064  1  0.54994000  0.89815000  0.35425000  1.0
  C  C1065  1  0.50698000  0.87401000  0.35161000  1.0
  C  C1066  1  0.46957000  0.83568000  0.39077000  1.0
  C  C1067  1  0.47509000  0.82148000  0.43253000  1.0
  C  C1068  1  0.12969000  0.55256000  0.66415000  1.0
  C  C1069  1  0.15286000  0.54646000  0.63960000  1.0
  C  C1070  1  0.19951000  0.57490000  0.62639000  1.0
  C  C1071  1  0.22310000  0.60960000  0.63770000  1.0
  C  C1072  1  0.19988000  0.61560000  0.66232000  1.0
  C  C1073  1  0.15319000  0.58710000  0.67551000  1.0
  C  C1074  1  0.27101000  0.63863000  0.62434000  1.0
  C  C1075  1  0.29630000  0.66620000  0.58010000  1.0
  C  C1076  1  0.34250000  0.69420000  0.56730000  1.0
  C  C1077  1  0.36352000  0.69480000  0.59868000  1.0
  C  C1078  1  0.33826000  0.66730000  0.64284000  1.0
  C  C1079  1  0.29206000  0.63930000  0.65564000  1.0
  C  C1080  1  0.08169000  0.52305000  0.67806000  1.0
  C  C1081  1  0.41142000  0.72440000  0.58498000  1.0
  C  C1082  1  0.97267000  0.39280000  0.66373000  1.0
  C  C1083  1  0.93398000  0.35090000  0.66712000  1.0
  C  C1084  1  0.93850000  0.32770000  0.64740000  1.0
  C  C1085  1  0.98170000  0.34640000  0.62430000  1.0
  C  C1086  1  0.02040000  0.38830000  0.62090000  1.0
  C  C1087  1  0.01590000  0.41150000  0.64060000  1.0
  C  C1088  1  0.97730000  0.40500000  0.80390000  1.0
  C  C1089  1  0.93860000  0.36940000  0.84260000  1.0
  C  C1090  1  0.94295000  0.35800000  0.88485000  1.0
  C  C1091  1  0.98600000  0.38210000  0.88850000  1.0
  C  C1092  1  0.02490000  0.41780000  0.84970000  1.0
  C  C1093  1  0.02049000  0.42920000  0.80751000  1.0
  C  C1094  1  0.97256000  0.54240000  0.65024000  1.0
  C  C1095  1  0.93460000  0.54230000  0.65030000  1.0
  C  C1096  1  0.93840000  0.58790000  0.62190000  1.0
  C  C1097  1  0.98024000  0.63370000  0.59346000  1.0
  C  C1098  1  0.01820000  0.63380000  0.59340000  1.0
  C  C1099  1  0.01441000  0.58820000  0.62179000  1.0
  C  C1100  1  0.79280000  0.21360000  0.81420000  1.0
  C  C1101  1  0.79240000  0.21580000  0.85140000  1.0
  C  C1102  1  0.76790000  0.17010000  0.89480000  1.0
  C  C1103  1  0.74370000  0.12210000  0.90100000  1.0
  C  C1104  1  0.74430000  0.11990000  0.86380000  1.0
  C  C1105  1  0.76876000  0.16560000  0.82044000  1.0
  C  C1106  1  0.79156000  0.36490000  0.84334000  1.0
  C  C1107  1  0.79113000  0.40213000  0.80460000  1.0
  C  C1108  1  0.76650000  0.42030000  0.80820000  1.0
  C  C1109  1  0.74238000  0.40150000  0.85032000  1.0
  C  C1110  1  0.74276000  0.36420000  0.88904000  1.0
  C  C1111  1  0.76730000  0.34600000  0.88550000  1.0
  C  C1112  1  0.78080000  0.34562000  0.67244000  1.0
  C  C1113  1  0.78000000  0.38396000  0.67152000  1.0
  C  C1114  1  0.75240000  0.39815000  0.65179000  1.0
  C  C1115  1  0.72562000  0.37401000  0.63297000  1.0
  C  C1116  1  0.72645000  0.33568000  0.63389000  1.0
  C  C1117  1  0.75401000  0.32148000  0.65361000  1.0
  C  C1118  1  0.71671000  0.05256000  0.57713000  1.0
  C  C1119  1  0.68606000  0.04646000  0.60640000  1.0
  C  C1120  1  0.70129000  0.07490000  0.62461000  1.0
  C  C1121  1  0.74730000  0.10960000  0.61350000  1.0
  C  C1122  1  0.77792000  0.11560000  0.58428000  1.0
  C  C1123  1  0.76261000  0.08710000  0.56609000  1.0
  C  C1124  1  0.76297000  0.13863000  0.63238000  1.0
  C  C1125  1  0.74630000  0.16620000  0.63010000  1.0
  C  C1126  1  0.76150000  0.19420000  0.64830000  1.0
  C  C1127  1  0.79348000  0.19480000  0.66872000  1.0
  C  C1128  1  0.81014000  0.16730000  0.67096000  1.0
  C  C1129  1  0.79494000  0.13930000  0.65276000  1.0
  C  C1130  1  0.70111000  0.02305000  0.55864000  1.0
  C  C1131  1  0.80938000  0.22440000  0.68702000  1.0
  N  N1132  1  0.23741000  0.36621000  0.03418000  1.0
  N  N1133  1  0.22480000  0.33562000  0.02010000  1.0
  N  N1134  1  0.23663000  0.36346000  0.97429000  1.0
  N  N1135  1  0.15333000  0.27470000  0.97997000  1.0
  N  N1136  1  0.13919000  0.24604000  0.02421000  1.0
  N  N1137  1  0.09555000  0.21350000  0.04195000  1.0
  N  N1138  1  0.24141000  0.27970000  0.97669000  1.0
  N  N1139  1  0.09880000  0.22128000  0.12176000  1.0
  N  N1140  1  0.09961000  0.13379000  0.12880000  1.0
  N  N1141  1  0.14428000  0.16438000  0.11082000  1.0
  N  N1142  1  0.16225000  0.13654000  0.12683000  1.0
  N  N1143  1  0.24533000  0.22530000  0.12137000  1.0
  N  N1144  1  0.22975000  0.25396000  0.10685000  1.0
  N  N1145  1  0.24455000  0.28650000  0.11795000  1.0
  N  N1146  1  0.24361000  0.22030000  0.03829000  1.0
  N  N1147  1  0.15696000  0.27872000  0.12248000  1.0
  N  N1148  1  0.37120000  0.77159000  0.26259000  1.0
  N  N1149  1  0.38918000  0.74490000  0.27520000  1.0
  N  N1150  1  0.37317000  0.71092000  0.26337000  1.0
  N  N1151  1  0.37863000  0.63330000  0.34667000  1.0
  N  N1152  1  0.39315000  0.66340000  0.36081000  1.0
  N  N1153  1  0.38205000  0.63750000  0.40445000  1.0
  N  N1154  1  0.46171000  0.71810000  0.25859000  1.0
  N  N1155  1  0.37752000  0.72056000  0.40120000  1.0
  N  N1156  1  0.46582000  0.72841000  0.40039000  1.0
  N  N1157  1  0.47990000  0.75510000  0.35572000  1.0
  N  N1158  1  0.52571000  0.78908000  0.33775000  1.0
  N  N1159  1  0.52003000  0.86670000  0.25467000  1.0
  N  N1160  1  0.47579000  0.83660000  0.27025000  1.0
  N  N1161  1  0.45805000  0.86250000  0.25545000  1.0
  N  N1162  1  0.52331000  0.78190000  0.25639000  1.0
  N  N1163  1  0.37824000  0.77944000  0.34304000  1.0
  N  N1164  1  0.22847000  0.25000000  0.02153000  1.0
  N  N1165  1  0.14250000  0.25000000  0.10750000  1.0
  N  N1166  1  0.47847000  0.75000000  0.27153000  1.0
  N  N1167  1  0.39250000  0.75000000  0.35750000  1.0
  N  N1168  1  0.76259000  0.63379000  0.96582000  1.0
  N  N1169  1  0.77520000  0.66438000  0.97990000  1.0
  N  N1170  1  0.76337000  0.63654000  0.02571000  1.0
  N  N1171  1  0.84667000  0.72530000  0.02003000  1.0
  N  N1172  1  0.86081000  0.75396000  0.97579000  1.0
  N  N1173  1  0.90445000  0.78650000  0.95805000  1.0
  N  N1174  1  0.75859000  0.72030000  0.02331000  1.0
  N  N1175  1  0.90120000  0.77872000  0.87824000  1.0
  N  N1176  1  0.90039000  0.86621000  0.87120000  1.0
  N  N1177  1  0.85572000  0.83562000  0.88918000  1.0
  N  N1178  1  0.83775000  0.86346000  0.87317000  1.0
  N  N1179  1  0.75467000  0.77470000  0.87863000  1.0
  N  N1180  1  0.77025000  0.74604000  0.89315000  1.0
  N  N1181  1  0.75545000  0.71350000  0.88205000  1.0
  N  N1182  1  0.75639000  0.77970000  0.96171000  1.0
  N  N1183  1  0.84304000  0.72128000  0.87752000  1.0
  N  N1184  1  0.62880000  0.22841000  0.73741000  1.0
  N  N1185  1  0.61082000  0.25510000  0.72480000  1.0
  N  N1186  1  0.62683000  0.28908000  0.73663000  1.0
  N  N1187  1  0.62137000  0.36670000  0.65333000  1.0
  N  N1188  1  0.60685000  0.33660000  0.63919000  1.0
  N  N1189  1  0.61795000  0.36250000  0.59555000  1.0
  N  N1190  1  0.53829000  0.28190000  0.74141000  1.0
  N  N1191  1  0.62248000  0.27944000  0.59880000  1.0
  N  N1192  1  0.53418000  0.27159000  0.59961000  1.0
  N  N1193  1  0.52010000  0.24490000  0.64428000  1.0
  N  N1194  1  0.47429000  0.21092000  0.66225000  1.0
  N  N1195  1  0.47997000  0.13330000  0.74533000  1.0
  N  N1196  1  0.52421000  0.16340000  0.72975000  1.0
  N  N1197  1  0.54195000  0.13750000  0.74455000  1.0
  N  N1198  1  0.47669000  0.21810000  0.74361000  1.0
  N  N1199  1  0.62176000  0.22056000  0.65696000  1.0
  N  N1200  1  0.77153000  0.75000000  0.97847000  1.0
  N  N1201  1  0.85750000  0.75000000  0.89250000  1.0
  N  N1202  1  0.52153000  0.25000000  0.72847000  1.0
  N  N1203  1  0.60750000  0.25000000  0.64250000  1.0
  N  N1204  1  0.18700000  0.64610000  0.90730000  1.0
  N  N1205  1  0.20282000  0.61670000  0.92108000  1.0
  N  N1206  1  0.19168000  0.59030000  0.96622000  1.0
  N  N1207  1  0.26804000  0.72990000  0.81806000  1.0
  N  N1208  1  0.28569000  0.70315000  0.83184000  1.0
  N  N1209  1  0.32953000  0.73140000  0.81507000  1.0
  N  N1210  1  0.18059000  0.64000000  0.82521000  1.0
  N  N1211  1  0.19661000  0.61109000  0.83884000  1.0
  N  N1212  1  0.18105000  0.57849000  0.82630000  1.0
  N  N1213  1  0.33484000  0.65050000  0.89966000  1.0
  N  N1214  1  0.29082000  0.62241000  0.91683000  1.0
  N  N1215  1  0.27705000  0.59370000  0.96165000  1.0
  N  N1216  1  0.33078000  0.64769000  0.81593000  1.0
  N  N1217  1  0.28571000  0.61737000  0.83212000  1.0
  N  N1218  1  0.27026000  0.58641000  0.81993000  1.0
  N  N1219  1  0.19345000  0.50254000  0.96671000  1.0
  N  N1220  1  0.20534000  0.53040000  0.92246000  1.0
  N  N1221  1  0.19196000  0.50101000  0.90821000  1.0
  N  N1222  1  0.05340000  0.14610000  0.54090000  1.0
  N  N1223  1  0.03778000  0.11670000  0.58612000  1.0
  N  N1224  1  0.05652000  0.09030000  0.60138000  1.0
  N  N1225  1  0.04796000  0.22990000  0.53814000  1.0
  N  N1226  1  0.03499000  0.20315000  0.58254000  1.0
  N  N1227  1  0.04647000  0.23140000  0.59813000  1.0
  N  N1228  1  0.96521000  0.14000000  0.54059000  1.0
  N  N1229  1  0.94993000  0.11109000  0.58552000  1.0
  N  N1230  1  0.90479000  0.07849000  0.60256000  1.0
  N  N1231  1  0.05016000  0.15050000  0.68434000  1.0
  N  N1232  1  0.03924000  0.12241000  0.66841000  1.0
  N  N1233  1  0.05535000  0.09370000  0.68335000  1.0
  N  N1234  1  0.96362000  0.14769000  0.68309000  1.0
  N  N1235  1  0.94949000  0.11737000  0.66834000  1.0
  N  N1236  1  0.90634000  0.08641000  0.68385000  1.0
  N  N1237  1  0.96925000  0.00254000  0.69091000  1.0
  N  N1238  1  0.95286000  0.03040000  0.67494000  1.0
  N  N1239  1  0.90922000  0.00101000  0.69095000  1.0
  N  N1240  1  0.94660000  0.85390000  0.45910000  1.0
  N  N1241  1  0.96222000  0.88330000  0.41388000  1.0
  N  N1242  1  0.94348000  0.90970000  0.39862000  1.0
  N  N1243  1  0.95204000  0.77010000  0.46186000  1.0
  N  N1244  1  0.96501000  0.79685000  0.41746000  1.0
  N  N1245  1  0.95353000  0.76860000  0.40187000  1.0
  N  N1246  1  0.03479000  0.86000000  0.45941000  1.0
  N  N1247  1  0.05007000  0.88891000  0.41448000  1.0
  N  N1248  1  0.09521000  0.92151000  0.39744000  1.0
  N  N1249  1  0.94984000  0.84950000  0.31566000  1.0
  N  N1250  1  0.96076000  0.87759000  0.33159000  1.0
  N  N1251  1  0.94465000  0.90630000  0.31665000  1.0
  N  N1252  1  0.03638000  0.85231000  0.31691000  1.0
  N  N1253  1  0.05051000  0.88263000  0.33166000  1.0
  N  N1254  1  0.09366000  0.91359000  0.31615000  1.0
  N  N1255  1  0.03075000  0.99746000  0.30909000  1.0
  N  N1256  1  0.04714000  0.96960000  0.32506000  1.0
  N  N1257  1  0.09078000  0.99899000  0.30905000  1.0
  N  N1258  1  0.81300000  0.35390000  0.09270000  1.0
  N  N1259  1  0.79718000  0.38330000  0.07892000  1.0
  N  N1260  1  0.80832000  0.40970000  0.03378000  1.0
  N  N1261  1  0.73196000  0.27010000  0.18194000  1.0
  N  N1262  1  0.71431000  0.29685000  0.16816000  1.0
  N  N1263  1  0.67047000  0.26860000  0.18493000  1.0
  N  N1264  1  0.81941000  0.36000000  0.17479000  1.0
  N  N1265  1  0.80339000  0.38891000  0.16116000  1.0
  N  N1266  1  0.81895000  0.42151000  0.17370000  1.0
  N  N1267  1  0.66516000  0.34950000  0.10034000  1.0
  N  N1268  1  0.70918000  0.37759000  0.08317000  1.0
  N  N1269  1  0.72295000  0.40630000  0.03835000  1.0
  N  N1270  1  0.66922000  0.35231000  0.18407000  1.0
  N  N1271  1  0.71429000  0.38263000  0.16788000  1.0
  N  N1272  1  0.72974000  0.41359000  0.18007000  1.0
  N  N1273  1  0.80655000  0.49746000  0.03329000  1.0
  N  N1274  1  0.79466000  0.46960000  0.07754000  1.0
  N  N1275  1  0.80804000  0.49899000  0.09179000  1.0
  N  N1276  1  0.04090000  0.59430000  0.31300000  1.0
  N  N1277  1  0.08612000  0.62390000  0.29718000  1.0
  N  N1278  1  0.10138000  0.65790000  0.30832000  1.0
  N  N1279  1  0.03814000  0.58610000  0.23196000  1.0
  N  N1280  1  0.08254000  0.61753000  0.21431000  1.0
  N  N1281  1  0.09813000  0.64460000  0.17047000  1.0
  N  N1282  1  0.04059000  0.50580000  0.31941000  1.0
  N  N1283  1  0.08552000  0.53545000  0.30339000  1.0
  N  N1284  1  0.10256000  0.50735000  0.31895000  1.0
  N  N1285  1  0.18434000  0.73450000  0.16516000  1.0
  N  N1286  1  0.16841000  0.70765000  0.20918000  1.0
  N  N1287  1  0.18335000  0.73870000  0.22295000  1.0
  N  N1288  1  0.18309000  0.64671000  0.16922000  1.0
  N  N1289  1  0.16834000  0.61783000  0.21429000  1.0
  N  N1290  1  0.18385000  0.59019000  0.22974000  1.0
  N  N1291  1  0.19091000  0.66016000  0.30655000  1.0
  N  N1292  1  0.17494000  0.62780000  0.29466000  1.0
  N  N1293  1  0.19095000  0.60017000  0.30804000  1.0
  N  N1294  1  0.40730000  0.09430000  0.44660000  1.0
  N  N1295  1  0.42108000  0.12390000  0.46222000  1.0
  N  N1296  1  0.46622000  0.15790000  0.44348000  1.0
  N  N1297  1  0.31806000  0.08610000  0.45204000  1.0
  N  N1298  1  0.33184000  0.11753000  0.46501000  1.0
  N  N1299  1  0.31507000  0.14460000  0.45353000  1.0
  N  N1300  1  0.32521000  0.00580000  0.53479000  1.0
  N  N1301  1  0.33884000  0.03545000  0.55007000  1.0
  N  N1302  1  0.32630000  0.00735000  0.59521000  1.0
  N  N1303  1  0.39966000  0.23450000  0.44984000  1.0
  N  N1304  1  0.41683000  0.20765000  0.46076000  1.0
  N  N1305  1  0.46165000  0.23870000  0.44465000  1.0
  N  N1306  1  0.31593000  0.14671000  0.53638000  1.0
  N  N1307  1  0.33212000  0.11783000  0.55051000  1.0
  N  N1308  1  0.31993000  0.09019000  0.59366000  1.0
  N  N1309  1  0.46671000  0.16016000  0.53075000  1.0
  N  N1310  1  0.42246000  0.12780000  0.54714000  1.0
  N  N1311  1  0.40821000  0.10017000  0.59078000  1.0
  N  N1312  1  0.59270000  0.90570000  0.55340000  1.0
  N  N1313  1  0.57892000  0.87610000  0.53778000  1.0
  N  N1314  1  0.53378000  0.84210000  0.55652000  1.0
  N  N1315  1  0.68194000  0.91390000  0.54796000  1.0
  N  N1316  1  0.66816000  0.88247000  0.53499000  1.0
  N  N1317  1  0.68493000  0.85540000  0.54647000  1.0
  N  N1318  1  0.67479000  0.99420000  0.46521000  1.0
  N  N1319  1  0.66116000  0.96455000  0.44993000  1.0
  N  N1320  1  0.67370000  0.99265000  0.40479000  1.0
  N  N1321  1  0.60034000  0.76550000  0.55016000  1.0
  N  N1322  1  0.58317000  0.79235000  0.53924000  1.0
  N  N1323  1  0.53835000  0.76130000  0.55535000  1.0
  N  N1324  1  0.68407000  0.85329000  0.46362000  1.0
  N  N1325  1  0.66788000  0.88217000  0.44949000  1.0
  N  N1326  1  0.68007000  0.90981000  0.40634000  1.0
  N  N1327  1  0.53329000  0.83984000  0.46925000  1.0
  N  N1328  1  0.57754000  0.87220000  0.45286000  1.0
  N  N1329  1  0.59179000  0.89983000  0.40922000  1.0
  N  N1330  1  0.95910000  0.40570000  0.68700000  1.0
  N  N1331  1  0.91388000  0.37610000  0.70282000  1.0
  N  N1332  1  0.89862000  0.34210000  0.69168000  1.0
  N  N1333  1  0.96186000  0.41390000  0.76804000  1.0
  N  N1334  1  0.91746000  0.38247000  0.78569000  1.0
  N  N1335  1  0.90187000  0.35540000  0.82953000  1.0
  N  N1336  1  0.95941000  0.49420000  0.68059000  1.0
  N  N1337  1  0.91448000  0.46455000  0.69661000  1.0
  N  N1338  1  0.89744000  0.49265000  0.68105000  1.0
  N  N1339  1  0.81566000  0.26550000  0.83484000  1.0
  N  N1340  1  0.83159000  0.29235000  0.79082000  1.0
  N  N1341  1  0.81665000  0.26130000  0.77705000  1.0
  N  N1342  1  0.81691000  0.35329000  0.83078000  1.0
  N  N1343  1  0.83166000  0.38217000  0.78571000  1.0
  N  N1344  1  0.81615000  0.40981000  0.77026000  1.0
  N  N1345  1  0.80909000  0.33984000  0.69345000  1.0
  N  N1346  1  0.82506000  0.37220000  0.70534000  1.0
  N  N1347  1  0.80905000  0.39983000  0.69196000  1.0
  O  O1348  1  0.34035000  0.59220000  0.28645000  1.0
  O  O1349  1  0.24660000  0.39160000  0.10940000  1.0
  O  O1350  1  0.23020000  0.33670000  0.16690000  1.0
  O  O1351  1  0.39750000  0.65290000  0.22600000  1.0
  O  O1352  1  0.62135000  0.90780000  0.25185000  1.0
  O  O1353  1  0.99900000  0.10840000  0.14500000  1.0
  O  O1354  1  0.99640000  0.16330000  0.10650000  1.0
  O  O1355  1  0.62110000  0.84710000  0.25540000  1.0
  O  O1356  1  0.24815000  0.12680000  0.15965000  1.0
  O  O1357  1  0.35500000  0.85600000  0.25340000  1.0
  O  O1358  1  0.39350000  0.89710000  0.26980000  1.0
  O  O1359  1  0.24460000  0.12350000  0.10250000  1.0
  O  O1360  1  0.21355000  0.37320000  0.87865000  1.0
  O  O1361  1  0.39060000  0.64400000  0.50100000  1.0
  O  O1362  1  0.33310000  0.60290000  0.50360000  1.0
  O  O1363  1  0.27400000  0.37650000  0.87890000  1.0
  O  O1364  1  0.65965000  0.40780000  0.71355000  1.0
  O  O1365  1  0.75340000  0.60840000  0.89060000  1.0
  O  O1366  1  0.76980000  0.66330000  0.83310000  1.0
  O  O1367  1  0.60250000  0.34710000  0.77400000  1.0
  O  O1368  1  0.37865000  0.09220000  0.74815000  1.0
  O  O1369  1  0.00100000  0.89160000  0.85500000  1.0
  O  O1370  1  0.00360000  0.83670000  0.89350000  1.0
  O  O1371  1  0.37890000  0.15290000  0.74460000  1.0
  O  O1372  1  0.75185000  0.87320000  0.84035000  1.0
  O  O1373  1  0.64500000  0.14400000  0.74660000  1.0
  O  O1374  1  0.60650000  0.10290000  0.73020000  1.0
  O  O1375  1  0.75540000  0.87650000  0.89750000  1.0
  O  O1376  1  0.78645000  0.62680000  0.12135000  1.0
  O  O1377  1  0.60940000  0.35600000  0.49900000  1.0
  O  O1378  1  0.66690000  0.39710000  0.49640000  1.0
  O  O1379  1  0.72600000  0.62350000  0.12110000  1.0
  O  O1380  1  0.02717000  0.25490000  0.43953000  1.0
  O  O1381  1  0.07275000  0.23350000  0.44135000  1.0
  O  O1382  1  0.18170000  0.48120000  0.06350000  1.0
  O  O1383  1  0.21050000  0.54540000  0.06770000  1.0
  O  O1384  1  0.19443000  0.75490000  0.77227000  1.0
  O  O1385  1  0.17485000  0.73350000  0.83925000  1.0
  O  O1386  1  0.04470000  0.98120000  0.70050000  1.0
  O  O1387  1  0.11310000  0.04540000  0.66510000  1.0
  O  O1388  1  0.80557000  0.24510000  0.22773000  1.0
  O  O1389  1  0.82515000  0.26650000  0.16075000  1.0
  O  O1390  1  0.95530000  0.01880000  0.29950000  1.0
  O  O1391  1  0.88690000  0.95460000  0.33490000  1.0
  O  O1392  1  0.97283000  0.74510000  0.56047000  1.0
  O  O1393  1  0.92725000  0.76650000  0.55865000  1.0
  O  O1394  1  0.81830000  0.51880000  0.93650000  1.0
  O  O1395  1  0.78950000  0.45460000  0.93230000  1.0
  O  O1396  1  0.27227000  0.96670000  0.47283000  1.0
  O  O1397  1  0.33925000  0.01410000  0.42725000  1.0
  O  O1398  1  0.20050000  0.74520000  0.31830000  1.0
  O  O1399  1  0.16510000  0.77820000  0.28950000  1.0
  O  O1400  1  0.93953000  0.46670000  0.30557000  1.0
  O  O1401  1  0.94135000  0.51410000  0.32515000  1.0
  O  O1402  1  0.56350000  0.24520000  0.45530000  1.0
  O  O1403  1  0.56770000  0.27820000  0.38690000  1.0
  O  O1404  1  0.06047000  0.53330000  0.69443000  1.0
  O  O1405  1  0.05865000  0.48590000  0.67485000  1.0
  O  O1406  1  0.43650000  0.75480000  0.54470000  1.0
  O  O1407  1  0.43230000  0.72180000  0.61310000  1.0
  O  O1408  1  0.72773000  0.03330000  0.52717000  1.0
  O  O1409  1  0.66075000  0.98590000  0.57275000  1.0
  O  O1410  1  0.79950000  0.25480000  0.68170000  1.0
  O  O1411  1  0.83490000  0.22180000  0.71050000  1.0
