# generated using pymatgen
data_La4Ag8H111Pd6C62S12N12O29
_symmetry_space_group_name_H-M   'P 1'
_cell_length_a   24.92700000
_cell_length_b   24.92700000
_cell_length_c   46.04500000
_cell_angle_alpha   90.00000000
_cell_angle_beta   90.00000000
_cell_angle_gamma   90.00000000
_symmetry_Int_Tables_number   1
_chemical_formula_structural   La4Ag8H111Pd6C62S12N12O29
_chemical_formula_sum   'La32 Ag64 H888 Pd48 C496 S96 N96 O232'
_cell_volume   28610.30612380
_cell_formula_units_Z   8
loop_
 _symmetry_equiv_pos_site_id
 _symmetry_equiv_pos_as_xyz
  1  'x, y, z'
loop_
 _atom_site_type_symbol
 _atom_site_label
 _atom_site_symmetry_multiplicity
 _atom_site_fract_x
 _atom_site_fract_y
 _atom_site_fract_z
 _atom_site_occupancy
  La  La0  1  0.92207000  0.37786000  0.11182000  1.0
  La  La1  1  0.89490000  0.04780000  0.27360000  1.0
  La  La2  1  0.84260000  0.10170000  0.30430000  1.0
  La  La3  1  0.07793000  0.62214000  0.61182000  1.0
  La  La4  1  0.10510000  0.95220000  0.77360000  1.0
  La  La5  1  0.15740000  0.89830000  0.80430000  1.0
  La  La6  1  0.12214000  0.42207000  0.36182000  1.0
  La  La7  1  0.45220000  0.39490000  0.52360000  1.0
  La  La8  1  0.39830000  0.34260000  0.55430000  1.0
  La  La9  1  0.87786000  0.57793000  0.86182000  1.0
  La  La10  1  0.54780000  0.60510000  0.02360000  1.0
  La  La11  1  0.60170000  0.65740000  0.05430000  1.0
  La  La12  1  0.57793000  0.87786000  0.13818000  1.0
  La  La13  1  0.60510000  0.54780000  0.97640000  1.0
  La  La14  1  0.65740000  0.60170000  0.94570000  1.0
  La  La15  1  0.42207000  0.12214000  0.63818000  1.0
  La  La16  1  0.39490000  0.45220000  0.47640000  1.0
  La  La17  1  0.34260000  0.39830000  0.44570000  1.0
  La  La18  1  0.37786000  0.92207000  0.88818000  1.0
  La  La19  1  0.04780000  0.89490000  0.72640000  1.0
  La  La20  1  0.10170000  0.84260000  0.69570000  1.0
  La  La21  1  0.62214000  0.07793000  0.38818000  1.0
  La  La22  1  0.95220000  0.10510000  0.22640000  1.0
  La  La23  1  0.89830000  0.15740000  0.19570000  1.0
  La  La24  1  0.61403000  0.61403000  0.50000000  1.0
  La  La25  1  0.38597000  0.38597000  0.00000000  1.0
  La  La26  1  0.88597000  0.11403000  0.75000000  1.0
  La  La27  1  0.11403000  0.88597000  0.25000000  1.0
  La  La28  1  0.86655000  0.13345000  0.25000000  1.0
  La  La29  1  0.13345000  0.86655000  0.75000000  1.0
  La  La30  1  0.36655000  0.36655000  0.50000000  1.0
  La  La31  1  0.63345000  0.63345000  0.00000000  1.0
  Ag  Ag32  1  0.71208000  0.65604000  0.22785000  1.0
  Ag  Ag33  1  0.84585000  0.61015000  0.24873000  1.0
  Ag  Ag34  1  0.81020000  0.50038000  0.28849000  1.0
  Ag  Ag35  1  0.67479000  0.55774000  0.27382000  1.0
  Ag  Ag36  1  0.72925000  0.73215000  0.29047000  1.0
  Ag  Ag37  1  0.87110000  0.71398000  0.30986000  1.0
  Ag  Ag38  1  0.80061000  0.59139000  0.34450000  1.0
  Ag  Ag39  1  0.65067000  0.64009000  0.34684000  1.0
  Ag  Ag40  1  0.28792000  0.34396000  0.72785000  1.0
  Ag  Ag41  1  0.15415000  0.38985000  0.74873000  1.0
  Ag  Ag42  1  0.18980000  0.49962000  0.78849000  1.0
  Ag  Ag43  1  0.32521000  0.44226000  0.77382000  1.0
  Ag  Ag44  1  0.27075000  0.26785000  0.79047000  1.0
  Ag  Ag45  1  0.12890000  0.28602000  0.80986000  1.0
  Ag  Ag46  1  0.19939000  0.40861000  0.84450000  1.0
  Ag  Ag47  1  0.34933000  0.35991000  0.84684000  1.0
  Ag  Ag48  1  0.84396000  0.21208000  0.47785000  1.0
  Ag  Ag49  1  0.88985000  0.34585000  0.49873000  1.0
  Ag  Ag50  1  0.99962000  0.31020000  0.53849000  1.0
  Ag  Ag51  1  0.94226000  0.17479000  0.52382000  1.0
  Ag  Ag52  1  0.76785000  0.22925000  0.54047000  1.0
  Ag  Ag53  1  0.78602000  0.37110000  0.55986000  1.0
  Ag  Ag54  1  0.90861000  0.30061000  0.59450000  1.0
  Ag  Ag55  1  0.85991000  0.15067000  0.59684000  1.0
  Ag  Ag56  1  0.15604000  0.78792000  0.97785000  1.0
  Ag  Ag57  1  0.11015000  0.65415000  0.99873000  1.0
  Ag  Ag58  1  0.00038000  0.68980000  0.03849000  1.0
  Ag  Ag59  1  0.05774000  0.82521000  0.02382000  1.0
  Ag  Ag60  1  0.23215000  0.77075000  0.04047000  1.0
  Ag  Ag61  1  0.21398000  0.62890000  0.05986000  1.0
  Ag  Ag62  1  0.09139000  0.69939000  0.09450000  1.0
  Ag  Ag63  1  0.14009000  0.84933000  0.09684000  1.0
  Ag  Ag64  1  0.78792000  0.15604000  0.02215000  1.0
  Ag  Ag65  1  0.65415000  0.11015000  0.00127000  1.0
  Ag  Ag66  1  0.68980000  0.00038000  0.96151000  1.0
  Ag  Ag67  1  0.82521000  0.05774000  0.97618000  1.0
  Ag  Ag68  1  0.77075000  0.23215000  0.95953000  1.0
  Ag  Ag69  1  0.62890000  0.21398000  0.94014000  1.0
  Ag  Ag70  1  0.69939000  0.09139000  0.90550000  1.0
  Ag  Ag71  1  0.84933000  0.14009000  0.90316000  1.0
  Ag  Ag72  1  0.21208000  0.84396000  0.52215000  1.0
  Ag  Ag73  1  0.34585000  0.88985000  0.50127000  1.0
  Ag  Ag74  1  0.31020000  0.99962000  0.46151000  1.0
  Ag  Ag75  1  0.17479000  0.94226000  0.47618000  1.0
  Ag  Ag76  1  0.22925000  0.76785000  0.45953000  1.0
  Ag  Ag77  1  0.37110000  0.78602000  0.44014000  1.0
  Ag  Ag78  1  0.30061000  0.90861000  0.40550000  1.0
  Ag  Ag79  1  0.15067000  0.85991000  0.40316000  1.0
  Ag  Ag80  1  0.65604000  0.71208000  0.77215000  1.0
  Ag  Ag81  1  0.61015000  0.84585000  0.75127000  1.0
  Ag  Ag82  1  0.50038000  0.81020000  0.71151000  1.0
  Ag  Ag83  1  0.55774000  0.67479000  0.72618000  1.0
  Ag  Ag84  1  0.73215000  0.72925000  0.70953000  1.0
  Ag  Ag85  1  0.71398000  0.87110000  0.69014000  1.0
  Ag  Ag86  1  0.59139000  0.80061000  0.65550000  1.0
  Ag  Ag87  1  0.64009000  0.65067000  0.65316000  1.0
  Ag  Ag88  1  0.34396000  0.28792000  0.27215000  1.0
  Ag  Ag89  1  0.38985000  0.15415000  0.25127000  1.0
  Ag  Ag90  1  0.49962000  0.18980000  0.21151000  1.0
  Ag  Ag91  1  0.44226000  0.32521000  0.22618000  1.0
  Ag  Ag92  1  0.26785000  0.27075000  0.20953000  1.0
  Ag  Ag93  1  0.28602000  0.12890000  0.19014000  1.0
  Ag  Ag94  1  0.40861000  0.19939000  0.15550000  1.0
  Ag  Ag95  1  0.35991000  0.34933000  0.15316000  1.0
  H  H96  1  0.71710000  0.47480000  0.15510000  1.0
  H  H97  1  0.68100000  0.45110000  0.17730000  1.0
  H  H98  1  0.78510000  0.40410000  0.18900000  1.0
  H  H99  1  0.81490000  0.44260000  0.17060000  1.0
  H  H100  1  0.81530000  0.80890000  0.17690000  1.0
  H  H101  1  0.86810000  0.78130000  0.17640000  1.0
  H  H102  1  0.89260000  0.84970000  0.22170000  1.0
  H  H103  1  0.83720000  0.87120000  0.22330000  1.0
  H  H104  1  0.04490000  0.60960000  0.32080000  1.0
  H  H105  1  0.04620000  0.58270000  0.29200000  1.0
  H  H106  1  0.02090000  0.49860000  0.32740000  1.0
  H  H107  1  0.99620000  0.51990000  0.35450000  1.0
  H  H108  1  0.67910000  0.37710000  0.35730000  1.0
  H  H109  1  0.63250000  0.39270000  0.33900000  1.0
  H  H110  1  0.61900000  0.46150000  0.38980000  1.0
  H  H111  1  0.67270000  0.44570000  0.40090000  1.0
  H  H112  1  0.47900000  0.68790000  0.29190000  1.0
  H  H113  1  0.47940000  0.64240000  0.27120000  1.0
  H  H114  1  0.50910000  0.72160000  0.23510000  1.0
  H  H115  1  0.52770000  0.76570000  0.25430000  1.0
  H  H116  1  0.71180000  0.79610000  0.41360000  1.0
  H  H117  1  0.72320000  0.83460000  0.38980000  1.0
  H  H118  1  0.82550000  0.80250000  0.40610000  1.0
  H  H119  1  0.81610000  0.75160000  0.42210000  1.0
  H  H120  1  0.67940000  0.55450000  0.15750000  1.0
  H  H121  1  0.62810000  0.46730000  0.21230000  1.0
  H  H122  1  0.57540000  0.49090000  0.19710000  1.0
  H  H123  1  0.59250000  0.51120000  0.22880000  1.0
  H  H124  1  0.62470000  0.62090000  0.18340000  1.0
  H  H125  1  0.58910000  0.60550000  0.21100000  1.0
  H  H126  1  0.57240000  0.58450000  0.17950000  1.0
  H  H127  1  0.84520000  0.40130000  0.22330000  1.0
  H  H128  1  0.87210000  0.51580000  0.17810000  1.0
  H  H129  1  0.93040000  0.49120000  0.18390000  1.0
  H  H130  1  0.91270000  0.54570000  0.19960000  1.0
  H  H131  1  0.90530000  0.45010000  0.25820000  1.0
  H  H132  1  0.93320000  0.50550000  0.24940000  1.0
  H  H133  1  0.95180000  0.45070000  0.23430000  1.0
  H  H134  1  0.76820000  0.73550000  0.16630000  1.0
  H  H135  1  0.90300000  0.70090000  0.18690000  1.0
  H  H136  1  0.89490000  0.66760000  0.15750000  1.0
  H  H137  1  0.89540000  0.63720000  0.18810000  1.0
  H  H138  1  0.75630000  0.63860000  0.16970000  1.0
  H  H139  1  0.80450000  0.59940000  0.17840000  1.0
  H  H140  1  0.80470000  0.62860000  0.14750000  1.0
  H  H141  1  0.90410000  0.84750000  0.26930000  1.0
  H  H142  1  0.74220000  0.85970000  0.28390000  1.0
  H  H143  1  0.76520000  0.86860000  0.25180000  1.0
  H  H144  1  0.77740000  0.91170000  0.27670000  1.0
  H  H145  1  0.86300000  0.82990000  0.32010000  1.0
  H  H146  1  0.79960000  0.83460000  0.32490000  1.0
  H  H147  1  0.83470000  0.88750000  0.31970000  1.0
  H  H148  1  0.00800000  0.68460000  0.30400000  1.0
  H  H149  1  0.99980000  0.58600000  0.25030000  1.0
  H  H150  1  0.02490000  0.63420000  0.23180000  1.0
  H  H151  1  0.96310000  0.61840000  0.22780000  1.0
  H  H152  1  0.95770000  0.73870000  0.26670000  1.0
  H  H153  1  0.93700000  0.70980000  0.23780000  1.0
  H  H154  1  0.99900000  0.72530000  0.24120000  1.0
  H  H155  1  0.94700000  0.44840000  0.31680000  1.0
  H  H156  1  0.93010000  0.52470000  0.38100000  1.0
  H  H157  1  0.91320000  0.46690000  0.39300000  1.0
  H  H158  1  0.86810000  0.51090000  0.38610000  1.0
  H  H159  1  0.85580000  0.41930000  0.32660000  1.0
  H  H160  1  0.82220000  0.44510000  0.35270000  1.0
  H  H161  1  0.86750000  0.40130000  0.35930000  1.0
  H  H162  1  0.73550000  0.37480000  0.32070000  1.0
  H  H163  1  0.62970000  0.44360000  0.26540000  1.0
  H  H164  1  0.61270000  0.43140000  0.29830000  1.0
  H  H165  1  0.62040000  0.38300000  0.27580000  1.0
  H  H166  1  0.76310000  0.39610000  0.27070000  1.0
  H  H167  1  0.72240000  0.42660000  0.24950000  1.0
  H  H168  1  0.71330000  0.36450000  0.25700000  1.0
  H  H169  1  0.62870000  0.54890000  0.40050000  1.0
  H  H170  1  0.76000000  0.48740000  0.40120000  1.0
  H  H171  1  0.76180000  0.51920000  0.43140000  1.0
  H  H172  1  0.79260000  0.54250000  0.40360000  1.0
  H  H173  1  0.68040000  0.63090000  0.40860000  1.0
  H  H174  1  0.74460000  0.62920000  0.40890000  1.0
  H  H175  1  0.71140000  0.60760000  0.43630000  1.0
  H  H176  1  0.51150000  0.64020000  0.32850000  1.0
  H  H177  1  0.55740000  0.51760000  0.27640000  1.0
  H  H178  1  0.52770000  0.56810000  0.26200000  1.0
  H  H179  1  0.49450000  0.52660000  0.28150000  1.0
  H  H180  1  0.58060000  0.51700000  0.32640000  1.0
  H  H181  1  0.51990000  0.52400000  0.33700000  1.0
  H  H182  1  0.56480000  0.56540000  0.34760000  1.0
  H  H183  1  0.58370000  0.72440000  0.20720000  1.0
  H  H184  1  0.59150000  0.81540000  0.26680000  1.0
  H  H185  1  0.60950000  0.85400000  0.24080000  1.0
  H  H186  1  0.65320000  0.83230000  0.26340000  1.0
  H  H187  1  0.67760000  0.75130000  0.19880000  1.0
  H  H188  1  0.70730000  0.79230000  0.22020000  1.0
  H  H189  1  0.66260000  0.81370000  0.19810000  1.0
  H  H190  1  0.63830000  0.76320000  0.39270000  1.0
  H  H191  1  0.65010000  0.86630000  0.33830000  1.0
  H  H192  1  0.67820000  0.82950000  0.31420000  1.0
  H  H193  1  0.71050000  0.84640000  0.34290000  1.0
  H  H194  1  0.57460000  0.80030000  0.34040000  1.0
  H  H195  1  0.58900000  0.73800000  0.34350000  1.0
  H  H196  1  0.60610000  0.77020000  0.31480000  1.0
  H  H197  1  0.89330000  0.76640000  0.37780000  1.0
  H  H198  1  0.86130000  0.61540000  0.40290000  1.0
  H  H199  1  0.82660000  0.66190000  0.41770000  1.0
  H  H200  1  0.88830000  0.65420000  0.42640000  1.0
  H  H201  1  0.92680000  0.63240000  0.36790000  1.0
  H  H202  1  0.95940000  0.67310000  0.38820000  1.0
  H  H203  1  0.93920000  0.69190000  0.35680000  1.0
  H  H204  1  0.79550000  0.44900000  0.03880000  1.0
  H  H205  1  0.84170000  0.43540000  0.01580000  1.0
  H  H206  1  0.84100000  0.49240000  0.03170000  1.0
  H  H207  1  0.28290000  0.52520000  0.65510000  1.0
  H  H208  1  0.31900000  0.54890000  0.67730000  1.0
  H  H209  1  0.21490000  0.59590000  0.68900000  1.0
  H  H210  1  0.18510000  0.55740000  0.67060000  1.0
  H  H211  1  0.18470000  0.19110000  0.67690000  1.0
  H  H212  1  0.13190000  0.21870000  0.67640000  1.0
  H  H213  1  0.10740000  0.15030000  0.72170000  1.0
  H  H214  1  0.16280000  0.12880000  0.72330000  1.0
  H  H215  1  0.95510000  0.39040000  0.82080000  1.0
  H  H216  1  0.95380000  0.41730000  0.79200000  1.0
  H  H217  1  0.97910000  0.50140000  0.82740000  1.0
  H  H218  1  0.00380000  0.48010000  0.85450000  1.0
  H  H219  1  0.32090000  0.62290000  0.85730000  1.0
  H  H220  1  0.36750000  0.60730000  0.83900000  1.0
  H  H221  1  0.38100000  0.53850000  0.88980000  1.0
  H  H222  1  0.32730000  0.55430000  0.90090000  1.0
  H  H223  1  0.52100000  0.31210000  0.79190000  1.0
  H  H224  1  0.52060000  0.35760000  0.77120000  1.0
  H  H225  1  0.49090000  0.27840000  0.73510000  1.0
  H  H226  1  0.47230000  0.23430000  0.75430000  1.0
  H  H227  1  0.28820000  0.20390000  0.91360000  1.0
  H  H228  1  0.27680000  0.16540000  0.88980000  1.0
  H  H229  1  0.17450000  0.19750000  0.90610000  1.0
  H  H230  1  0.18390000  0.24840000  0.92210000  1.0
  H  H231  1  0.32060000  0.44550000  0.65750000  1.0
  H  H232  1  0.37190000  0.53270000  0.71230000  1.0
  H  H233  1  0.42460000  0.50910000  0.69710000  1.0
  H  H234  1  0.40750000  0.48880000  0.72880000  1.0
  H  H235  1  0.37530000  0.37910000  0.68340000  1.0
  H  H236  1  0.41090000  0.39450000  0.71100000  1.0
  H  H237  1  0.42760000  0.41550000  0.67950000  1.0
  H  H238  1  0.15480000  0.59870000  0.72330000  1.0
  H  H239  1  0.12790000  0.48420000  0.67810000  1.0
  H  H240  1  0.06960000  0.50880000  0.68390000  1.0
  H  H241  1  0.08730000  0.45430000  0.69960000  1.0
  H  H242  1  0.09470000  0.54990000  0.75820000  1.0
  H  H243  1  0.06680000  0.49450000  0.74940000  1.0
  H  H244  1  0.04820000  0.54930000  0.73430000  1.0
  H  H245  1  0.23180000  0.26450000  0.66630000  1.0
  H  H246  1  0.09700000  0.29910000  0.68690000  1.0
  H  H247  1  0.10510000  0.33240000  0.65750000  1.0
  H  H248  1  0.10460000  0.36280000  0.68810000  1.0
  H  H249  1  0.24370000  0.36140000  0.66970000  1.0
  H  H250  1  0.19550000  0.40060000  0.67840000  1.0
  H  H251  1  0.19530000  0.37140000  0.64750000  1.0
  H  H252  1  0.09590000  0.15250000  0.76930000  1.0
  H  H253  1  0.25780000  0.14030000  0.78390000  1.0
  H  H254  1  0.23480000  0.13140000  0.75180000  1.0
  H  H255  1  0.22260000  0.08830000  0.77670000  1.0
  H  H256  1  0.13700000  0.17010000  0.82010000  1.0
  H  H257  1  0.20040000  0.16540000  0.82490000  1.0
  H  H258  1  0.16530000  0.11250000  0.81970000  1.0
  H  H259  1  0.99200000  0.31540000  0.80400000  1.0
  H  H260  1  0.00020000  0.41400000  0.75030000  1.0
  H  H261  1  0.97510000  0.36580000  0.73180000  1.0
  H  H262  1  0.03690000  0.38160000  0.72780000  1.0
  H  H263  1  0.04230000  0.26130000  0.76670000  1.0
  H  H264  1  0.06300000  0.29020000  0.73780000  1.0
  H  H265  1  0.00100000  0.27470000  0.74120000  1.0
  H  H266  1  0.05300000  0.55160000  0.81680000  1.0
  H  H267  1  0.06990000  0.47530000  0.88100000  1.0
  H  H268  1  0.08680000  0.53310000  0.89300000  1.0
  H  H269  1  0.13190000  0.48910000  0.88610000  1.0
  H  H270  1  0.14420000  0.58070000  0.82660000  1.0
  H  H271  1  0.17780000  0.55490000  0.85270000  1.0
  H  H272  1  0.13250000  0.59870000  0.85930000  1.0
  H  H273  1  0.26450000  0.62520000  0.82070000  1.0
  H  H274  1  0.37030000  0.55640000  0.76540000  1.0
  H  H275  1  0.38730000  0.56860000  0.79830000  1.0
  H  H276  1  0.37960000  0.61700000  0.77580000  1.0
  H  H277  1  0.23690000  0.60390000  0.77070000  1.0
  H  H278  1  0.27760000  0.57340000  0.74950000  1.0
  H  H279  1  0.28670000  0.63550000  0.75700000  1.0
  H  H280  1  0.37130000  0.45110000  0.90050000  1.0
  H  H281  1  0.24000000  0.51260000  0.90120000  1.0
  H  H282  1  0.23820000  0.48080000  0.93140000  1.0
  H  H283  1  0.20740000  0.45750000  0.90360000  1.0
  H  H284  1  0.31960000  0.36910000  0.90860000  1.0
  H  H285  1  0.25540000  0.37080000  0.90890000  1.0
  H  H286  1  0.28860000  0.39240000  0.93630000  1.0
  H  H287  1  0.48850000  0.35980000  0.82850000  1.0
  H  H288  1  0.44260000  0.48240000  0.77640000  1.0
  H  H289  1  0.47230000  0.43190000  0.76200000  1.0
  H  H290  1  0.50550000  0.47340000  0.78150000  1.0
  H  H291  1  0.41940000  0.48300000  0.82640000  1.0
  H  H292  1  0.48010000  0.47600000  0.83700000  1.0
  H  H293  1  0.43520000  0.43460000  0.84760000  1.0
  H  H294  1  0.41630000  0.27560000  0.70720000  1.0
  H  H295  1  0.40850000  0.18460000  0.76680000  1.0
  H  H296  1  0.39050000  0.14600000  0.74080000  1.0
  H  H297  1  0.34680000  0.16770000  0.76340000  1.0
  H  H298  1  0.32240000  0.24870000  0.69880000  1.0
  H  H299  1  0.29270000  0.20770000  0.72020000  1.0
  H  H300  1  0.33740000  0.18630000  0.69810000  1.0
  H  H301  1  0.36170000  0.23680000  0.89270000  1.0
  H  H302  1  0.34990000  0.13370000  0.83830000  1.0
  H  H303  1  0.32180000  0.17050000  0.81420000  1.0
  H  H304  1  0.28950000  0.15360000  0.84290000  1.0
  H  H305  1  0.42540000  0.19970000  0.84040000  1.0
  H  H306  1  0.41100000  0.26200000  0.84350000  1.0
  H  H307  1  0.39390000  0.22980000  0.81480000  1.0
  H  H308  1  0.10670000  0.23360000  0.87780000  1.0
  H  H309  1  0.13870000  0.38460000  0.90290000  1.0
  H  H310  1  0.17340000  0.33810000  0.91770000  1.0
  H  H311  1  0.11170000  0.34580000  0.92640000  1.0
  H  H312  1  0.07320000  0.36760000  0.86790000  1.0
  H  H313  1  0.04060000  0.32690000  0.88820000  1.0
  H  H314  1  0.06080000  0.30810000  0.85680000  1.0
  H  H315  1  0.20450000  0.55100000  0.53880000  1.0
  H  H316  1  0.15830000  0.56460000  0.51580000  1.0
  H  H317  1  0.15900000  0.50760000  0.53170000  1.0
  H  H318  1  0.02520000  0.21710000  0.40510000  1.0
  H  H319  1  0.04890000  0.18100000  0.42730000  1.0
  H  H320  1  0.09590000  0.28510000  0.43900000  1.0
  H  H321  1  0.05740000  0.31490000  0.42060000  1.0
  H  H322  1  0.69110000  0.31530000  0.42690000  1.0
  H  H323  1  0.71870000  0.36810000  0.42640000  1.0
  H  H324  1  0.65030000  0.39260000  0.47170000  1.0
  H  H325  1  0.62880000  0.33720000  0.47330000  1.0
  H  H326  1  0.89040000  0.54490000  0.57080000  1.0
  H  H327  1  0.91730000  0.54620000  0.54200000  1.0
  H  H328  1  0.00140000  0.52090000  0.57740000  1.0
  H  H329  1  0.98010000  0.49620000  0.60450000  1.0
  H  H330  1  0.12290000  0.17910000  0.60730000  1.0
  H  H331  1  0.10730000  0.13250000  0.58900000  1.0
  H  H332  1  0.03850000  0.11900000  0.63980000  1.0
  H  H333  1  0.05430000  0.17270000  0.65090000  1.0
  H  H334  1  0.81210000  0.97900000  0.54190000  1.0
  H  H335  1  0.85760000  0.97940000  0.52120000  1.0
  H  H336  1  0.77840000  0.00910000  0.48510000  1.0
  H  H337  1  0.73430000  0.02770000  0.50430000  1.0
  H  H338  1  0.70390000  0.21180000  0.66360000  1.0
  H  H339  1  0.66540000  0.22320000  0.63980000  1.0
  H  H340  1  0.69750000  0.32550000  0.65610000  1.0
  H  H341  1  0.74840000  0.31610000  0.67210000  1.0
  H  H342  1  0.94550000  0.17940000  0.40750000  1.0
  H  H343  1  0.03270000  0.12810000  0.46230000  1.0
  H  H344  1  0.00910000  0.07540000  0.44710000  1.0
  H  H345  1  0.98880000  0.09250000  0.47880000  1.0
  H  H346  1  0.87910000  0.12470000  0.43340000  1.0
  H  H347  1  0.89450000  0.08910000  0.46100000  1.0
  H  H348  1  0.91550000  0.07240000  0.42950000  1.0
  H  H349  1  0.09870000  0.34520000  0.47330000  1.0
  H  H350  1  0.98420000  0.37210000  0.42810000  1.0
  H  H351  1  0.00880000  0.43040000  0.43390000  1.0
  H  H352  1  0.95430000  0.41270000  0.44960000  1.0
  H  H353  1  0.04990000  0.40530000  0.50820000  1.0
  H  H354  1  0.99450000  0.43320000  0.49940000  1.0
  H  H355  1  0.04930000  0.45180000  0.48430000  1.0
  H  H356  1  0.76450000  0.26820000  0.41630000  1.0
  H  H357  1  0.79910000  0.40300000  0.43690000  1.0
  H  H358  1  0.83240000  0.39490000  0.40750000  1.0
  H  H359  1  0.86280000  0.39540000  0.43810000  1.0
  H  H360  1  0.86140000  0.25630000  0.41970000  1.0
  H  H361  1  0.90060000  0.30450000  0.42840000  1.0
  H  H362  1  0.87140000  0.30470000  0.39750000  1.0
  H  H363  1  0.65250000  0.40410000  0.51930000  1.0
  H  H364  1  0.64030000  0.24220000  0.53390000  1.0
  H  H365  1  0.63140000  0.26520000  0.50180000  1.0
  H  H366  1  0.58830000  0.27740000  0.52670000  1.0
  H  H367  1  0.67010000  0.36300000  0.57010000  1.0
  H  H368  1  0.66540000  0.29960000  0.57490000  1.0
  H  H369  1  0.61250000  0.33470000  0.56970000  1.0
  H  H370  1  0.81540000  0.50800000  0.55400000  1.0
  H  H371  1  0.91400000  0.49980000  0.50030000  1.0
  H  H372  1  0.86580000  0.52490000  0.48180000  1.0
  H  H373  1  0.88160000  0.46310000  0.47780000  1.0
  H  H374  1  0.76130000  0.45770000  0.51670000  1.0
  H  H375  1  0.79020000  0.43700000  0.48780000  1.0
  H  H376  1  0.77470000  0.49900000  0.49120000  1.0
  H  H377  1  0.05160000  0.44700000  0.56680000  1.0
  H  H378  1  0.97530000  0.43010000  0.63100000  1.0
  H  H379  1  0.03310000  0.41320000  0.64300000  1.0
  H  H380  1  0.98910000  0.36810000  0.63610000  1.0
  H  H381  1  0.08070000  0.35580000  0.57660000  1.0
  H  H382  1  0.05490000  0.32220000  0.60270000  1.0
  H  H383  1  0.09870000  0.36750000  0.60930000  1.0
  H  H384  1  0.12520000  0.23550000  0.57070000  1.0
  H  H385  1  0.05640000  0.12970000  0.51540000  1.0
  H  H386  1  0.06860000  0.11270000  0.54830000  1.0
  H  H387  1  0.11700000  0.12040000  0.52580000  1.0
  H  H388  1  0.10390000  0.26310000  0.52070000  1.0
  H  H389  1  0.07340000  0.22240000  0.49950000  1.0
  H  H390  1  0.13550000  0.21330000  0.50700000  1.0
  H  H391  1  0.95110000  0.12870000  0.65050000  1.0
  H  H392  1  0.01260000  0.26000000  0.65120000  1.0
  H  H393  1  0.98080000  0.26180000  0.68140000  1.0
  H  H394  1  0.95750000  0.29260000  0.65360000  1.0
  H  H395  1  0.86910000  0.18040000  0.65860000  1.0
  H  H396  1  0.87080000  0.24460000  0.65890000  1.0
  H  H397  1  0.89240000  0.21140000  0.68630000  1.0
  H  H398  1  0.85980000  0.01150000  0.57850000  1.0
  H  H399  1  0.98240000  0.05740000  0.52640000  1.0
  H  H400  1  0.93190000  0.02770000  0.51200000  1.0
  H  H401  1  0.97340000  0.99450000  0.53150000  1.0
  H  H402  1  0.98300000  0.08060000  0.57640000  1.0
  H  H403  1  0.97600000  0.01990000  0.58700000  1.0
  H  H404  1  0.93460000  0.06480000  0.59760000  1.0
  H  H405  1  0.77560000  0.08370000  0.45720000  1.0
  H  H406  1  0.68460000  0.09150000  0.51680000  1.0
  H  H407  1  0.64600000  0.10950000  0.49080000  1.0
  H  H408  1  0.66770000  0.15320000  0.51340000  1.0
  H  H409  1  0.74870000  0.17760000  0.44880000  1.0
  H  H410  1  0.70770000  0.20730000  0.47020000  1.0
  H  H411  1  0.68630000  0.16260000  0.44810000  1.0
  H  H412  1  0.73680000  0.13830000  0.64270000  1.0
  H  H413  1  0.63370000  0.15010000  0.58830000  1.0
  H  H414  1  0.67050000  0.17820000  0.56420000  1.0
  H  H415  1  0.65360000  0.21050000  0.59290000  1.0
  H  H416  1  0.69970000  0.07460000  0.59040000  1.0
  H  H417  1  0.76200000  0.08900000  0.59350000  1.0
  H  H418  1  0.72980000  0.10610000  0.56480000  1.0
  H  H419  1  0.73360000  0.39330000  0.62780000  1.0
  H  H420  1  0.88460000  0.36130000  0.65290000  1.0
  H  H421  1  0.83810000  0.32660000  0.66770000  1.0
  H  H422  1  0.84580000  0.38830000  0.67640000  1.0
  H  H423  1  0.86760000  0.42680000  0.61790000  1.0
  H  H424  1  0.82690000  0.45940000  0.63820000  1.0
  H  H425  1  0.80810000  0.43920000  0.60680000  1.0
  H  H426  1  0.05100000  0.29550000  0.28880000  1.0
  H  H427  1  0.06460000  0.34170000  0.26580000  1.0
  H  H428  1  0.00760000  0.34100000  0.28170000  1.0
  H  H429  1  0.97480000  0.78290000  0.90510000  1.0
  H  H430  1  0.95110000  0.81900000  0.92730000  1.0
  H  H431  1  0.90410000  0.71490000  0.93900000  1.0
  H  H432  1  0.94260000  0.68510000  0.92060000  1.0
  H  H433  1  0.30890000  0.68470000  0.92690000  1.0
  H  H434  1  0.28130000  0.63190000  0.92640000  1.0
  H  H435  1  0.34970000  0.60740000  0.97170000  1.0
  H  H436  1  0.37120000  0.66280000  0.97330000  1.0
  H  H437  1  0.10960000  0.45510000  0.07080000  1.0
  H  H438  1  0.08270000  0.45380000  0.04200000  1.0
  H  H439  1  0.99860000  0.47910000  0.07740000  1.0
  H  H440  1  0.01990000  0.50380000  0.10450000  1.0
  H  H441  1  0.87710000  0.82090000  0.10730000  1.0
  H  H442  1  0.89270000  0.86750000  0.08900000  1.0
  H  H443  1  0.96150000  0.88100000  0.13980000  1.0
  H  H444  1  0.94570000  0.82730000  0.15090000  1.0
  H  H445  1  0.18790000  0.02100000  0.04190000  1.0
  H  H446  1  0.14240000  0.02060000  0.02120000  1.0
  H  H447  1  0.22160000  0.99090000  0.98510000  1.0
  H  H448  1  0.26570000  0.97230000  0.00430000  1.0
  H  H449  1  0.29610000  0.78820000  0.16360000  1.0
  H  H450  1  0.33460000  0.77680000  0.13980000  1.0
  H  H451  1  0.30250000  0.67450000  0.15610000  1.0
  H  H452  1  0.25160000  0.68390000  0.17210000  1.0
  H  H453  1  0.05450000  0.82060000  0.90750000  1.0
  H  H454  1  0.96730000  0.87190000  0.96230000  1.0
  H  H455  1  0.99090000  0.92460000  0.94710000  1.0
  H  H456  1  0.01120000  0.90750000  0.97880000  1.0
  H  H457  1  0.12090000  0.87530000  0.93340000  1.0
  H  H458  1  0.10550000  0.91090000  0.96100000  1.0
  H  H459  1  0.08450000  0.92760000  0.92950000  1.0
  H  H460  1  0.90130000  0.65480000  0.97330000  1.0
  H  H461  1  0.01580000  0.62790000  0.92810000  1.0
  H  H462  1  0.99120000  0.56960000  0.93390000  1.0
  H  H463  1  0.04570000  0.58730000  0.94960000  1.0
  H  H464  1  0.95010000  0.59470000  0.00820000  1.0
  H  H465  1  0.00550000  0.56680000  0.99940000  1.0
  H  H466  1  0.95070000  0.54820000  0.98430000  1.0
  H  H467  1  0.23550000  0.73180000  0.91630000  1.0
  H  H468  1  0.20090000  0.59700000  0.93690000  1.0
  H  H469  1  0.16760000  0.60510000  0.90750000  1.0
  H  H470  1  0.13720000  0.60460000  0.93810000  1.0
  H  H471  1  0.13860000  0.74370000  0.91970000  1.0
  H  H472  1  0.09940000  0.69550000  0.92840000  1.0
  H  H473  1  0.12860000  0.69530000  0.89750000  1.0
  H  H474  1  0.34750000  0.59590000  0.01930000  1.0
  H  H475  1  0.35970000  0.75780000  0.03390000  1.0
  H  H476  1  0.36860000  0.73480000  0.00180000  1.0
  H  H477  1  0.41170000  0.72260000  0.02670000  1.0
  H  H478  1  0.32990000  0.63700000  0.07010000  1.0
  H  H479  1  0.33460000  0.70040000  0.07490000  1.0
  H  H480  1  0.38750000  0.66530000  0.06970000  1.0
  H  H481  1  0.18460000  0.49200000  0.05400000  1.0
  H  H482  1  0.08600000  0.50020000  0.00030000  1.0
  H  H483  1  0.13420000  0.47510000  0.98180000  1.0
  H  H484  1  0.11840000  0.53690000  0.97780000  1.0
  H  H485  1  0.23870000  0.54230000  0.01670000  1.0
  H  H486  1  0.20980000  0.56300000  0.98780000  1.0
  H  H487  1  0.22530000  0.50100000  0.99120000  1.0
  H  H488  1  0.94840000  0.55300000  0.06680000  1.0
  H  H489  1  0.02470000  0.56990000  0.13100000  1.0
  H  H490  1  0.96690000  0.58680000  0.14300000  1.0
  H  H491  1  0.01090000  0.63190000  0.13610000  1.0
  H  H492  1  0.91930000  0.64420000  0.07660000  1.0
  H  H493  1  0.94510000  0.67780000  0.10270000  1.0
  H  H494  1  0.90130000  0.63250000  0.10930000  1.0
  H  H495  1  0.87480000  0.76450000  0.07070000  1.0
  H  H496  1  0.94360000  0.87030000  0.01540000  1.0
  H  H497  1  0.93140000  0.88730000  0.04830000  1.0
  H  H498  1  0.88300000  0.87960000  0.02580000  1.0
  H  H499  1  0.89610000  0.73690000  0.02070000  1.0
  H  H500  1  0.92660000  0.77760000  0.99950000  1.0
  H  H501  1  0.86450000  0.78670000  0.00700000  1.0
  H  H502  1  0.04890000  0.87130000  0.15050000  1.0
  H  H503  1  0.98740000  0.74000000  0.15120000  1.0
  H  H504  1  0.01920000  0.73820000  0.18140000  1.0
  H  H505  1  0.04250000  0.70740000  0.15360000  1.0
  H  H506  1  0.13090000  0.81960000  0.15860000  1.0
  H  H507  1  0.12920000  0.75540000  0.15890000  1.0
  H  H508  1  0.10760000  0.78860000  0.18630000  1.0
  H  H509  1  0.14020000  0.98850000  0.07850000  1.0
  H  H510  1  0.01760000  0.94260000  0.02640000  1.0
  H  H511  1  0.06810000  0.97230000  0.01200000  1.0
  H  H512  1  0.02660000  0.00550000  0.03150000  1.0
  H  H513  1  0.01700000  0.91940000  0.07640000  1.0
  H  H514  1  0.02400000  0.98010000  0.08700000  1.0
  H  H515  1  0.06540000  0.93520000  0.09760000  1.0
  H  H516  1  0.22440000  0.91630000  0.95720000  1.0
  H  H517  1  0.31540000  0.90850000  0.01680000  1.0
  H  H518  1  0.35400000  0.89050000  0.99080000  1.0
  H  H519  1  0.33230000  0.84680000  0.01340000  1.0
  H  H520  1  0.25130000  0.82240000  0.94880000  1.0
  H  H521  1  0.29230000  0.79270000  0.97020000  1.0
  H  H522  1  0.31370000  0.83740000  0.94810000  1.0
  H  H523  1  0.26320000  0.86170000  0.14270000  1.0
  H  H524  1  0.36630000  0.84990000  0.08830000  1.0
  H  H525  1  0.32950000  0.82180000  0.06420000  1.0
  H  H526  1  0.34640000  0.78950000  0.09290000  1.0
  H  H527  1  0.30030000  0.92540000  0.09040000  1.0
  H  H528  1  0.23800000  0.91100000  0.09350000  1.0
  H  H529  1  0.27020000  0.89390000  0.06480000  1.0
  H  H530  1  0.26640000  0.60670000  0.12780000  1.0
  H  H531  1  0.11540000  0.63870000  0.15290000  1.0
  H  H532  1  0.16190000  0.67340000  0.16770000  1.0
  H  H533  1  0.15420000  0.61170000  0.17640000  1.0
  H  H534  1  0.13240000  0.57320000  0.11790000  1.0
  H  H535  1  0.17310000  0.54060000  0.13820000  1.0
  H  H536  1  0.19190000  0.56080000  0.10680000  1.0
  H  H537  1  0.94900000  0.70450000  0.78880000  1.0
  H  H538  1  0.93540000  0.65830000  0.76580000  1.0
  H  H539  1  0.99240000  0.65900000  0.78170000  1.0
  H  H540  1  0.78290000  0.97480000  0.09490000  1.0
  H  H541  1  0.81900000  0.95110000  0.07270000  1.0
  H  H542  1  0.71490000  0.90410000  0.06100000  1.0
  H  H543  1  0.68510000  0.94260000  0.07940000  1.0
  H  H544  1  0.68470000  0.30890000  0.07310000  1.0
  H  H545  1  0.63190000  0.28130000  0.07360000  1.0
  H  H546  1  0.60740000  0.34970000  0.02830000  1.0
  H  H547  1  0.66280000  0.37120000  0.02670000  1.0
  H  H548  1  0.45510000  0.10960000  0.92920000  1.0
  H  H549  1  0.45380000  0.08270000  0.95800000  1.0
  H  H550  1  0.47910000  0.99860000  0.92260000  1.0
  H  H551  1  0.50380000  0.01990000  0.89550000  1.0
  H  H552  1  0.82090000  0.87710000  0.89270000  1.0
  H  H553  1  0.86750000  0.89270000  0.91100000  1.0
  H  H554  1  0.88100000  0.96150000  0.86020000  1.0
  H  H555  1  0.82730000  0.94570000  0.84910000  1.0
  H  H556  1  0.02100000  0.18790000  0.95810000  1.0
  H  H557  1  0.02060000  0.14240000  0.97880000  1.0
  H  H558  1  0.99090000  0.22160000  0.01490000  1.0
  H  H559  1  0.97230000  0.26570000  0.99570000  1.0
  H  H560  1  0.78820000  0.29610000  0.83640000  1.0
  H  H561  1  0.77680000  0.33460000  0.86020000  1.0
  H  H562  1  0.67450000  0.30250000  0.84390000  1.0
  H  H563  1  0.68390000  0.25160000  0.82790000  1.0
  H  H564  1  0.82060000  0.05450000  0.09250000  1.0
  H  H565  1  0.87190000  0.96730000  0.03770000  1.0
  H  H566  1  0.92460000  0.99090000  0.05290000  1.0
  H  H567  1  0.90750000  0.01120000  0.02120000  1.0
  H  H568  1  0.87530000  0.12090000  0.06660000  1.0
  H  H569  1  0.91090000  0.10550000  0.03900000  1.0
  H  H570  1  0.92760000  0.08450000  0.07050000  1.0
  H  H571  1  0.65480000  0.90130000  0.02670000  1.0
  H  H572  1  0.62790000  0.01580000  0.07190000  1.0
  H  H573  1  0.56960000  0.99120000  0.06610000  1.0
  H  H574  1  0.58730000  0.04570000  0.05040000  1.0
  H  H575  1  0.59470000  0.95010000  0.99180000  1.0
  H  H576  1  0.56680000  0.00550000  0.00060000  1.0
  H  H577  1  0.54820000  0.95070000  0.01570000  1.0
  H  H578  1  0.73180000  0.23550000  0.08370000  1.0
  H  H579  1  0.59700000  0.20090000  0.06310000  1.0
  H  H580  1  0.60510000  0.16760000  0.09250000  1.0
  H  H581  1  0.60460000  0.13720000  0.06190000  1.0
  H  H582  1  0.74370000  0.13860000  0.08030000  1.0
  H  H583  1  0.69550000  0.09940000  0.07160000  1.0
  H  H584  1  0.69530000  0.12860000  0.10250000  1.0
  H  H585  1  0.59590000  0.34750000  0.98070000  1.0
  H  H586  1  0.75780000  0.35970000  0.96610000  1.0
  H  H587  1  0.73480000  0.36860000  0.99820000  1.0
  H  H588  1  0.72260000  0.41170000  0.97330000  1.0
  H  H589  1  0.63700000  0.32990000  0.92990000  1.0
  H  H590  1  0.70040000  0.33460000  0.92510000  1.0
  H  H591  1  0.66530000  0.38750000  0.93030000  1.0
  H  H592  1  0.49200000  0.18460000  0.94600000  1.0
  H  H593  1  0.50020000  0.08600000  0.99970000  1.0
  H  H594  1  0.47510000  0.13420000  0.01820000  1.0
  H  H595  1  0.53690000  0.11840000  0.02220000  1.0
  H  H596  1  0.54230000  0.23870000  0.98330000  1.0
  H  H597  1  0.56300000  0.20980000  0.01220000  1.0
  H  H598  1  0.50100000  0.22530000  0.00880000  1.0
  H  H599  1  0.55300000  0.94840000  0.93320000  1.0
  H  H600  1  0.56990000  0.02470000  0.86900000  1.0
  H  H601  1  0.58680000  0.96690000  0.85700000  1.0
  H  H602  1  0.63190000  0.01090000  0.86390000  1.0
  H  H603  1  0.64420000  0.91930000  0.92340000  1.0
  H  H604  1  0.67780000  0.94510000  0.89730000  1.0
  H  H605  1  0.63250000  0.90130000  0.89070000  1.0
  H  H606  1  0.76450000  0.87480000  0.92930000  1.0
  H  H607  1  0.87030000  0.94360000  0.98460000  1.0
  H  H608  1  0.88730000  0.93140000  0.95170000  1.0
  H  H609  1  0.87960000  0.88300000  0.97420000  1.0
  H  H610  1  0.73690000  0.89610000  0.97930000  1.0
  H  H611  1  0.77760000  0.92660000  0.00050000  1.0
  H  H612  1  0.78670000  0.86450000  0.99300000  1.0
  H  H613  1  0.87130000  0.04890000  0.84950000  1.0
  H  H614  1  0.74000000  0.98740000  0.84880000  1.0
  H  H615  1  0.73820000  0.01920000  0.81860000  1.0
  H  H616  1  0.70740000  0.04250000  0.84640000  1.0
  H  H617  1  0.81960000  0.13090000  0.84140000  1.0
  H  H618  1  0.75540000  0.12920000  0.84110000  1.0
  H  H619  1  0.78860000  0.10760000  0.81370000  1.0
  H  H620  1  0.98850000  0.14020000  0.92150000  1.0
  H  H621  1  0.94260000  0.01760000  0.97360000  1.0
  H  H622  1  0.97230000  0.06810000  0.98800000  1.0
  H  H623  1  0.00550000  0.02660000  0.96850000  1.0
  H  H624  1  0.91940000  0.01700000  0.92360000  1.0
  H  H625  1  0.98010000  0.02400000  0.91300000  1.0
  H  H626  1  0.93520000  0.06540000  0.90240000  1.0
  H  H627  1  0.91630000  0.22440000  0.04280000  1.0
  H  H628  1  0.90850000  0.31540000  0.98320000  1.0
  H  H629  1  0.89050000  0.35400000  0.00920000  1.0
  H  H630  1  0.84680000  0.33230000  0.98660000  1.0
  H  H631  1  0.82240000  0.25130000  0.05120000  1.0
  H  H632  1  0.79270000  0.29230000  0.02980000  1.0
  H  H633  1  0.83740000  0.31370000  0.05190000  1.0
  H  H634  1  0.86170000  0.26320000  0.85730000  1.0
  H  H635  1  0.84990000  0.36630000  0.91170000  1.0
  H  H636  1  0.82180000  0.32950000  0.93580000  1.0
  H  H637  1  0.78950000  0.34640000  0.90710000  1.0
  H  H638  1  0.92540000  0.30030000  0.90960000  1.0
  H  H639  1  0.91100000  0.23800000  0.90650000  1.0
  H  H640  1  0.89390000  0.27020000  0.93520000  1.0
  H  H641  1  0.60670000  0.26640000  0.87220000  1.0
  H  H642  1  0.63870000  0.11540000  0.84710000  1.0
  H  H643  1  0.67340000  0.16190000  0.83230000  1.0
  H  H644  1  0.61170000  0.15420000  0.82360000  1.0
  H  H645  1  0.57320000  0.13240000  0.88210000  1.0
  H  H646  1  0.54060000  0.17310000  0.86180000  1.0
  H  H647  1  0.56080000  0.19190000  0.89320000  1.0
  H  H648  1  0.70450000  0.94900000  0.21120000  1.0
  H  H649  1  0.65830000  0.93540000  0.23420000  1.0
  H  H650  1  0.65900000  0.99240000  0.21830000  1.0
  H  H651  1  0.21710000  0.02520000  0.59490000  1.0
  H  H652  1  0.18100000  0.04890000  0.57270000  1.0
  H  H653  1  0.28510000  0.09590000  0.56100000  1.0
  H  H654  1  0.31490000  0.05740000  0.57940000  1.0
  H  H655  1  0.31530000  0.69110000  0.57310000  1.0
  H  H656  1  0.36810000  0.71870000  0.57360000  1.0
  H  H657  1  0.39260000  0.65030000  0.52830000  1.0
  H  H658  1  0.33720000  0.62880000  0.52670000  1.0
  H  H659  1  0.54490000  0.89040000  0.42920000  1.0
  H  H660  1  0.54620000  0.91730000  0.45800000  1.0
  H  H661  1  0.52090000  0.00140000  0.42260000  1.0
  H  H662  1  0.49620000  0.98010000  0.39550000  1.0
  H  H663  1  0.17910000  0.12290000  0.39270000  1.0
  H  H664  1  0.13250000  0.10730000  0.41100000  1.0
  H  H665  1  0.11900000  0.03850000  0.36020000  1.0
  H  H666  1  0.17270000  0.05430000  0.34910000  1.0
  H  H667  1  0.97900000  0.81210000  0.45810000  1.0
  H  H668  1  0.97940000  0.85760000  0.47880000  1.0
  H  H669  1  0.00910000  0.77840000  0.51490000  1.0
  H  H670  1  0.02770000  0.73430000  0.49570000  1.0
  H  H671  1  0.21180000  0.70390000  0.33640000  1.0
  H  H672  1  0.22320000  0.66540000  0.36020000  1.0
  H  H673  1  0.32550000  0.69750000  0.34390000  1.0
  H  H674  1  0.31610000  0.74840000  0.32790000  1.0
  H  H675  1  0.17940000  0.94550000  0.59250000  1.0
  H  H676  1  0.12810000  0.03270000  0.53770000  1.0
  H  H677  1  0.07540000  0.00910000  0.55290000  1.0
  H  H678  1  0.09250000  0.98880000  0.52120000  1.0
  H  H679  1  0.12470000  0.87910000  0.56660000  1.0
  H  H680  1  0.08910000  0.89450000  0.53900000  1.0
  H  H681  1  0.07240000  0.91550000  0.57050000  1.0
  H  H682  1  0.34520000  0.09870000  0.52670000  1.0
  H  H683  1  0.37210000  0.98420000  0.57190000  1.0
  H  H684  1  0.43040000  0.00880000  0.56610000  1.0
  H  H685  1  0.41270000  0.95430000  0.55040000  1.0
  H  H686  1  0.40530000  0.04990000  0.49180000  1.0
  H  H687  1  0.43320000  0.99450000  0.50060000  1.0
  H  H688  1  0.45180000  0.04930000  0.51570000  1.0
  H  H689  1  0.26820000  0.76450000  0.58370000  1.0
  H  H690  1  0.40300000  0.79910000  0.56310000  1.0
  H  H691  1  0.39490000  0.83240000  0.59250000  1.0
  H  H692  1  0.39540000  0.86280000  0.56190000  1.0
  H  H693  1  0.25630000  0.86140000  0.58030000  1.0
  H  H694  1  0.30450000  0.90060000  0.57160000  1.0
  H  H695  1  0.30470000  0.87140000  0.60250000  1.0
  H  H696  1  0.40410000  0.65250000  0.48070000  1.0
  H  H697  1  0.24220000  0.64030000  0.46610000  1.0
  H  H698  1  0.26520000  0.63140000  0.49820000  1.0
  H  H699  1  0.27740000  0.58830000  0.47330000  1.0
  H  H700  1  0.36300000  0.67010000  0.42990000  1.0
  H  H701  1  0.29960000  0.66540000  0.42510000  1.0
  H  H702  1  0.33470000  0.61250000  0.43030000  1.0
  H  H703  1  0.50800000  0.81540000  0.44600000  1.0
  H  H704  1  0.49980000  0.91400000  0.49970000  1.0
  H  H705  1  0.52490000  0.86580000  0.51820000  1.0
  H  H706  1  0.46310000  0.88160000  0.52220000  1.0
  H  H707  1  0.45770000  0.76130000  0.48330000  1.0
  H  H708  1  0.43700000  0.79020000  0.51220000  1.0
  H  H709  1  0.49900000  0.77470000  0.50880000  1.0
  H  H710  1  0.44700000  0.05160000  0.43320000  1.0
  H  H711  1  0.43010000  0.97530000  0.36900000  1.0
  H  H712  1  0.41320000  0.03310000  0.35700000  1.0
  H  H713  1  0.36810000  0.98910000  0.36390000  1.0
  H  H714  1  0.35580000  0.08070000  0.42340000  1.0
  H  H715  1  0.32220000  0.05490000  0.39730000  1.0
  H  H716  1  0.36750000  0.09870000  0.39070000  1.0
  H  H717  1  0.23550000  0.12520000  0.42930000  1.0
  H  H718  1  0.12970000  0.05640000  0.48460000  1.0
  H  H719  1  0.11270000  0.06860000  0.45170000  1.0
  H  H720  1  0.12040000  0.11700000  0.47420000  1.0
  H  H721  1  0.26310000  0.10390000  0.47930000  1.0
  H  H722  1  0.22240000  0.07340000  0.50050000  1.0
  H  H723  1  0.21330000  0.13550000  0.49300000  1.0
  H  H724  1  0.12870000  0.95110000  0.34950000  1.0
  H  H725  1  0.26000000  0.01260000  0.34880000  1.0
  H  H726  1  0.26180000  0.98080000  0.31860000  1.0
  H  H727  1  0.29260000  0.95750000  0.34640000  1.0
  H  H728  1  0.18040000  0.86910000  0.34140000  1.0
  H  H729  1  0.24460000  0.87080000  0.34110000  1.0
  H  H730  1  0.21140000  0.89240000  0.31370000  1.0
  H  H731  1  0.01150000  0.85980000  0.42150000  1.0
  H  H732  1  0.05740000  0.98240000  0.47360000  1.0
  H  H733  1  0.02770000  0.93190000  0.48800000  1.0
  H  H734  1  0.99450000  0.97340000  0.46850000  1.0
  H  H735  1  0.08060000  0.98300000  0.42360000  1.0
  H  H736  1  0.01990000  0.97600000  0.41300000  1.0
  H  H737  1  0.06480000  0.93460000  0.40240000  1.0
  H  H738  1  0.08370000  0.77560000  0.54280000  1.0
  H  H739  1  0.09150000  0.68460000  0.48320000  1.0
  H  H740  1  0.10950000  0.64600000  0.50920000  1.0
  H  H741  1  0.15320000  0.66770000  0.48660000  1.0
  H  H742  1  0.17760000  0.74870000  0.55120000  1.0
  H  H743  1  0.20730000  0.70770000  0.52980000  1.0
  H  H744  1  0.16260000  0.68630000  0.55190000  1.0
  H  H745  1  0.13830000  0.73680000  0.35730000  1.0
  H  H746  1  0.15010000  0.63370000  0.41170000  1.0
  H  H747  1  0.17820000  0.67050000  0.43580000  1.0
  H  H748  1  0.21050000  0.65360000  0.40710000  1.0
  H  H749  1  0.07460000  0.69970000  0.40960000  1.0
  H  H750  1  0.08900000  0.76200000  0.40650000  1.0
  H  H751  1  0.10610000  0.72980000  0.43520000  1.0
  H  H752  1  0.39330000  0.73360000  0.37220000  1.0
  H  H753  1  0.36130000  0.88460000  0.34710000  1.0
  H  H754  1  0.32660000  0.83810000  0.33230000  1.0
  H  H755  1  0.38830000  0.84580000  0.32360000  1.0
  H  H756  1  0.42680000  0.86760000  0.38210000  1.0
  H  H757  1  0.45940000  0.82690000  0.36180000  1.0
  H  H758  1  0.43920000  0.80810000  0.39320000  1.0
  H  H759  1  0.29550000  0.05100000  0.71120000  1.0
  H  H760  1  0.34170000  0.06460000  0.73420000  1.0
  H  H761  1  0.34100000  0.00760000  0.71830000  1.0
  H  H762  1  0.47480000  0.71710000  0.84490000  1.0
  H  H763  1  0.45110000  0.68100000  0.82270000  1.0
  H  H764  1  0.40410000  0.78510000  0.81100000  1.0
  H  H765  1  0.44260000  0.81490000  0.82940000  1.0
  H  H766  1  0.80890000  0.81530000  0.82310000  1.0
  H  H767  1  0.78130000  0.86810000  0.82360000  1.0
  H  H768  1  0.84970000  0.89260000  0.77830000  1.0
  H  H769  1  0.87120000  0.83720000  0.77670000  1.0
  H  H770  1  0.60960000  0.04490000  0.67920000  1.0
  H  H771  1  0.58270000  0.04620000  0.70800000  1.0
  H  H772  1  0.49860000  0.02090000  0.67260000  1.0
  H  H773  1  0.51990000  0.99620000  0.64550000  1.0
  H  H774  1  0.37710000  0.67910000  0.64270000  1.0
  H  H775  1  0.39270000  0.63250000  0.66100000  1.0
  H  H776  1  0.46150000  0.61900000  0.61020000  1.0
  H  H777  1  0.44570000  0.67270000  0.59910000  1.0
  H  H778  1  0.68790000  0.47900000  0.70810000  1.0
  H  H779  1  0.64240000  0.47940000  0.72880000  1.0
  H  H780  1  0.72160000  0.50910000  0.76490000  1.0
  H  H781  1  0.76570000  0.52770000  0.74570000  1.0
  H  H782  1  0.79610000  0.71180000  0.58640000  1.0
  H  H783  1  0.83460000  0.72320000  0.61020000  1.0
  H  H784  1  0.80250000  0.82550000  0.59390000  1.0
  H  H785  1  0.75160000  0.81610000  0.57790000  1.0
  H  H786  1  0.55450000  0.67940000  0.84250000  1.0
  H  H787  1  0.46730000  0.62810000  0.78770000  1.0
  H  H788  1  0.49090000  0.57540000  0.80290000  1.0
  H  H789  1  0.51120000  0.59250000  0.77120000  1.0
  H  H790  1  0.62090000  0.62470000  0.81660000  1.0
  H  H791  1  0.60550000  0.58910000  0.78900000  1.0
  H  H792  1  0.58450000  0.57240000  0.82050000  1.0
  H  H793  1  0.40130000  0.84520000  0.77670000  1.0
  H  H794  1  0.51580000  0.87210000  0.82190000  1.0
  H  H795  1  0.49120000  0.93040000  0.81610000  1.0
  H  H796  1  0.54570000  0.91270000  0.80040000  1.0
  H  H797  1  0.45010000  0.90530000  0.74180000  1.0
  H  H798  1  0.50550000  0.93320000  0.75060000  1.0
  H  H799  1  0.45070000  0.95180000  0.76570000  1.0
  H  H800  1  0.73550000  0.76820000  0.83370000  1.0
  H  H801  1  0.70090000  0.90300000  0.81310000  1.0
  H  H802  1  0.66760000  0.89490000  0.84250000  1.0
  H  H803  1  0.63720000  0.89540000  0.81190000  1.0
  H  H804  1  0.63860000  0.75630000  0.83030000  1.0
  H  H805  1  0.59940000  0.80450000  0.82160000  1.0
  H  H806  1  0.62860000  0.80470000  0.85250000  1.0
  H  H807  1  0.84750000  0.90410000  0.73070000  1.0
  H  H808  1  0.85970000  0.74220000  0.71610000  1.0
  H  H809  1  0.86860000  0.76520000  0.74820000  1.0
  H  H810  1  0.91170000  0.77740000  0.72330000  1.0
  H  H811  1  0.82990000  0.86300000  0.67990000  1.0
  H  H812  1  0.83460000  0.79960000  0.67510000  1.0
  H  H813  1  0.88750000  0.83470000  0.68030000  1.0
  H  H814  1  0.68460000  0.00800000  0.69600000  1.0
  H  H815  1  0.58600000  0.99980000  0.74970000  1.0
  H  H816  1  0.63420000  0.02490000  0.76820000  1.0
  H  H817  1  0.61840000  0.96310000  0.77220000  1.0
  H  H818  1  0.73870000  0.95770000  0.73330000  1.0
  H  H819  1  0.70980000  0.93700000  0.76220000  1.0
  H  H820  1  0.72530000  0.99900000  0.75880000  1.0
  H  H821  1  0.44840000  0.94700000  0.68320000  1.0
  H  H822  1  0.52470000  0.93010000  0.61900000  1.0
  H  H823  1  0.46690000  0.91320000  0.60700000  1.0
  H  H824  1  0.51090000  0.86810000  0.61390000  1.0
  H  H825  1  0.41930000  0.85580000  0.67340000  1.0
  H  H826  1  0.44510000  0.82220000  0.64730000  1.0
  H  H827  1  0.40130000  0.86750000  0.64070000  1.0
  H  H828  1  0.37480000  0.73550000  0.67930000  1.0
  H  H829  1  0.44360000  0.62970000  0.73460000  1.0
  H  H830  1  0.43140000  0.61270000  0.70170000  1.0
  H  H831  1  0.38300000  0.62040000  0.72420000  1.0
  H  H832  1  0.39610000  0.76310000  0.72930000  1.0
  H  H833  1  0.42660000  0.72240000  0.75050000  1.0
  H  H834  1  0.36450000  0.71330000  0.74300000  1.0
  H  H835  1  0.54890000  0.62870000  0.59950000  1.0
  H  H836  1  0.48740000  0.76000000  0.59880000  1.0
  H  H837  1  0.51920000  0.76180000  0.56860000  1.0
  H  H838  1  0.54250000  0.79260000  0.59640000  1.0
  H  H839  1  0.63090000  0.68040000  0.59140000  1.0
  H  H840  1  0.62920000  0.74460000  0.59110000  1.0
  H  H841  1  0.60760000  0.71140000  0.56370000  1.0
  H  H842  1  0.64020000  0.51150000  0.67150000  1.0
  H  H843  1  0.51760000  0.55740000  0.72360000  1.0
  H  H844  1  0.56810000  0.52770000  0.73800000  1.0
  H  H845  1  0.52660000  0.49450000  0.71850000  1.0
  H  H846  1  0.51700000  0.58060000  0.67360000  1.0
  H  H847  1  0.52400000  0.51990000  0.66300000  1.0
  H  H848  1  0.56540000  0.56480000  0.65240000  1.0
  H  H849  1  0.72440000  0.58370000  0.79280000  1.0
  H  H850  1  0.81540000  0.59150000  0.73320000  1.0
  H  H851  1  0.85400000  0.60950000  0.75920000  1.0
  H  H852  1  0.83230000  0.65320000  0.73660000  1.0
  H  H853  1  0.75130000  0.67760000  0.80120000  1.0
  H  H854  1  0.79230000  0.70730000  0.77980000  1.0
  H  H855  1  0.81370000  0.66260000  0.80190000  1.0
  H  H856  1  0.76320000  0.63830000  0.60730000  1.0
  H  H857  1  0.86630000  0.65010000  0.66170000  1.0
  H  H858  1  0.82950000  0.67820000  0.68580000  1.0
  H  H859  1  0.84640000  0.71050000  0.65710000  1.0
  H  H860  1  0.80030000  0.57460000  0.65960000  1.0
  H  H861  1  0.73800000  0.58900000  0.65650000  1.0
  H  H862  1  0.77020000  0.60610000  0.68520000  1.0
  H  H863  1  0.76640000  0.89330000  0.62220000  1.0
  H  H864  1  0.61540000  0.86130000  0.59710000  1.0
  H  H865  1  0.66190000  0.82660000  0.58230000  1.0
  H  H866  1  0.65420000  0.88830000  0.57360000  1.0
  H  H867  1  0.63240000  0.92680000  0.63210000  1.0
  H  H868  1  0.67310000  0.95940000  0.61180000  1.0
  H  H869  1  0.69190000  0.93920000  0.64320000  1.0
  H  H870  1  0.44900000  0.79550000  0.96120000  1.0
  H  H871  1  0.43540000  0.84170000  0.98420000  1.0
  H  H872  1  0.49240000  0.84100000  0.96830000  1.0
  H  H873  1  0.52520000  0.28290000  0.34490000  1.0
  H  H874  1  0.54890000  0.31900000  0.32270000  1.0
  H  H875  1  0.59590000  0.21490000  0.31100000  1.0
  H  H876  1  0.55740000  0.18510000  0.32940000  1.0
  H  H877  1  0.19110000  0.18470000  0.32310000  1.0
  H  H878  1  0.21870000  0.13190000  0.32360000  1.0
  H  H879  1  0.15030000  0.10740000  0.27830000  1.0
  H  H880  1  0.12880000  0.16280000  0.27670000  1.0
  H  H881  1  0.39040000  0.95510000  0.17920000  1.0
  H  H882  1  0.41730000  0.95380000  0.20800000  1.0
  H  H883  1  0.50140000  0.97910000  0.17260000  1.0
  H  H884  1  0.48010000  0.00380000  0.14550000  1.0
  H  H885  1  0.62290000  0.32090000  0.14270000  1.0
  H  H886  1  0.60730000  0.36750000  0.16100000  1.0
  H  H887  1  0.53850000  0.38100000  0.11020000  1.0
  H  H888  1  0.55430000  0.32730000  0.09910000  1.0
  H  H889  1  0.31210000  0.52100000  0.20810000  1.0
  H  H890  1  0.35760000  0.52060000  0.22880000  1.0
  H  H891  1  0.27840000  0.49090000  0.26490000  1.0
  H  H892  1  0.23430000  0.47230000  0.24570000  1.0
  H  H893  1  0.20390000  0.28820000  0.08640000  1.0
  H  H894  1  0.16540000  0.27680000  0.11020000  1.0
  H  H895  1  0.19750000  0.17450000  0.09390000  1.0
  H  H896  1  0.24840000  0.18390000  0.07790000  1.0
  H  H897  1  0.44550000  0.32060000  0.34250000  1.0
  H  H898  1  0.53270000  0.37190000  0.28770000  1.0
  H  H899  1  0.50910000  0.42460000  0.30290000  1.0
  H  H900  1  0.48880000  0.40750000  0.27120000  1.0
  H  H901  1  0.37910000  0.37530000  0.31660000  1.0
  H  H902  1  0.39450000  0.41090000  0.28900000  1.0
  H  H903  1  0.41550000  0.42760000  0.32050000  1.0
  H  H904  1  0.59870000  0.15480000  0.27670000  1.0
  H  H905  1  0.48420000  0.12790000  0.32190000  1.0
  H  H906  1  0.50880000  0.06960000  0.31610000  1.0
  H  H907  1  0.45430000  0.08730000  0.30040000  1.0
  H  H908  1  0.54990000  0.09470000  0.24180000  1.0
  H  H909  1  0.49450000  0.06680000  0.25060000  1.0
  H  H910  1  0.54930000  0.04820000  0.26570000  1.0
  H  H911  1  0.26450000  0.23180000  0.33370000  1.0
  H  H912  1  0.29910000  0.09700000  0.31310000  1.0
  H  H913  1  0.33240000  0.10510000  0.34250000  1.0
  H  H914  1  0.36280000  0.10460000  0.31190000  1.0
  H  H915  1  0.36140000  0.24370000  0.33030000  1.0
  H  H916  1  0.40060000  0.19550000  0.32160000  1.0
  H  H917  1  0.37140000  0.19530000  0.35250000  1.0
  H  H918  1  0.15250000  0.09590000  0.23070000  1.0
  H  H919  1  0.14030000  0.25780000  0.21610000  1.0
  H  H920  1  0.13140000  0.23480000  0.24820000  1.0
  H  H921  1  0.08830000  0.22260000  0.22330000  1.0
  H  H922  1  0.17010000  0.13700000  0.17990000  1.0
  H  H923  1  0.16540000  0.20040000  0.17510000  1.0
  H  H924  1  0.11250000  0.16530000  0.18030000  1.0
  H  H925  1  0.31540000  0.99200000  0.19600000  1.0
  H  H926  1  0.41400000  0.00020000  0.24970000  1.0
  H  H927  1  0.36580000  0.97510000  0.26820000  1.0
  H  H928  1  0.38160000  0.03690000  0.27220000  1.0
  H  H929  1  0.26130000  0.04230000  0.23330000  1.0
  H  H930  1  0.29020000  0.06300000  0.26220000  1.0
  H  H931  1  0.27470000  0.00100000  0.25880000  1.0
  H  H932  1  0.55160000  0.05300000  0.18320000  1.0
  H  H933  1  0.47530000  0.06990000  0.11900000  1.0
  H  H934  1  0.53310000  0.08680000  0.10700000  1.0
  H  H935  1  0.48910000  0.13190000  0.11390000  1.0
  H  H936  1  0.58070000  0.14420000  0.17340000  1.0
  H  H937  1  0.55490000  0.17780000  0.14730000  1.0
  H  H938  1  0.59870000  0.13250000  0.14070000  1.0
  H  H939  1  0.62520000  0.26450000  0.17930000  1.0
  H  H940  1  0.55640000  0.37030000  0.23460000  1.0
  H  H941  1  0.56860000  0.38730000  0.20170000  1.0
  H  H942  1  0.61700000  0.37960000  0.22420000  1.0
  H  H943  1  0.60390000  0.23690000  0.22930000  1.0
  H  H944  1  0.57340000  0.27760000  0.25050000  1.0
  H  H945  1  0.63550000  0.28670000  0.24300000  1.0
  H  H946  1  0.45110000  0.37130000  0.09950000  1.0
  H  H947  1  0.51260000  0.24000000  0.09880000  1.0
  H  H948  1  0.48080000  0.23820000  0.06860000  1.0
  H  H949  1  0.45750000  0.20740000  0.09640000  1.0
  H  H950  1  0.36910000  0.31960000  0.09140000  1.0
  H  H951  1  0.37080000  0.25540000  0.09110000  1.0
  H  H952  1  0.39240000  0.28860000  0.06370000  1.0
  H  H953  1  0.35980000  0.48850000  0.17150000  1.0
  H  H954  1  0.48240000  0.44260000  0.22360000  1.0
  H  H955  1  0.43190000  0.47230000  0.23800000  1.0
  H  H956  1  0.47340000  0.50550000  0.21850000  1.0
  H  H957  1  0.48300000  0.41940000  0.17360000  1.0
  H  H958  1  0.47600000  0.48010000  0.16300000  1.0
  H  H959  1  0.43460000  0.43520000  0.15240000  1.0
  H  H960  1  0.27560000  0.41630000  0.29280000  1.0
  H  H961  1  0.18460000  0.40850000  0.23320000  1.0
  H  H962  1  0.14600000  0.39050000  0.25920000  1.0
  H  H963  1  0.16770000  0.34680000  0.23660000  1.0
  H  H964  1  0.24870000  0.32240000  0.30120000  1.0
  H  H965  1  0.20770000  0.29270000  0.27980000  1.0
  H  H966  1  0.18630000  0.33740000  0.30190000  1.0
  H  H967  1  0.23680000  0.36170000  0.10730000  1.0
  H  H968  1  0.13370000  0.34990000  0.16170000  1.0
  H  H969  1  0.17050000  0.32180000  0.18580000  1.0
  H  H970  1  0.15360000  0.28950000  0.15710000  1.0
  H  H971  1  0.19970000  0.42540000  0.15960000  1.0
  H  H972  1  0.26200000  0.41100000  0.15650000  1.0
  H  H973  1  0.22980000  0.39390000  0.18520000  1.0
  H  H974  1  0.23360000  0.10670000  0.12220000  1.0
  H  H975  1  0.38460000  0.13870000  0.09710000  1.0
  H  H976  1  0.33810000  0.17340000  0.08230000  1.0
  H  H977  1  0.34580000  0.11170000  0.07360000  1.0
  H  H978  1  0.36760000  0.07320000  0.13210000  1.0
  H  H979  1  0.32690000  0.04060000  0.11180000  1.0
  H  H980  1  0.30810000  0.06080000  0.14320000  1.0
  H  H981  1  0.55100000  0.20450000  0.46120000  1.0
  H  H982  1  0.56460000  0.15830000  0.48420000  1.0
  H  H983  1  0.50760000  0.15900000  0.46830000  1.0
  Pd  Pd984  1  0.75550000  0.49710000  0.20383000  1.0
  Pd  Pd985  1  0.83075000  0.77110000  0.22625000  1.0
  Pd  Pd986  1  0.95410000  0.57041000  0.31228000  1.0
  Pd  Pd987  1  0.68492000  0.47676000  0.34935000  1.0
  Pd  Pd988  1  0.57106000  0.68222000  0.27109000  1.0
  Pd  Pd989  1  0.76551000  0.74581000  0.37538000  1.0
  Pd  Pd990  1  0.24450000  0.50290000  0.70383000  1.0
  Pd  Pd991  1  0.16925000  0.22890000  0.72625000  1.0
  Pd  Pd992  1  0.04590000  0.42959000  0.81228000  1.0
  Pd  Pd993  1  0.31508000  0.52324000  0.84935000  1.0
  Pd  Pd994  1  0.42894000  0.31778000  0.77109000  1.0
  Pd  Pd995  1  0.23449000  0.25419000  0.87538000  1.0
  Pd  Pd996  1  0.00290000  0.25550000  0.45383000  1.0
  Pd  Pd997  1  0.72890000  0.33075000  0.47625000  1.0
  Pd  Pd998  1  0.92959000  0.45410000  0.56228000  1.0
  Pd  Pd999  1  0.02324000  0.18492000  0.59935000  1.0
  Pd  Pd1000  1  0.81778000  0.07106000  0.52109000  1.0
  Pd  Pd1001  1  0.75419000  0.26551000  0.62538000  1.0
  Pd  Pd1002  1  0.99710000  0.74450000  0.95383000  1.0
  Pd  Pd1003  1  0.27110000  0.66925000  0.97625000  1.0
  Pd  Pd1004  1  0.07041000  0.54590000  0.06228000  1.0
  Pd  Pd1005  1  0.97676000  0.81508000  0.09935000  1.0
  Pd  Pd1006  1  0.18222000  0.92894000  0.02109000  1.0
  Pd  Pd1007  1  0.24581000  0.73449000  0.12538000  1.0
  Pd  Pd1008  1  0.74450000  0.99710000  0.04617000  1.0
  Pd  Pd1009  1  0.66925000  0.27110000  0.02375000  1.0
  Pd  Pd1010  1  0.54590000  0.07041000  0.93772000  1.0
  Pd  Pd1011  1  0.81508000  0.97676000  0.90065000  1.0
  Pd  Pd1012  1  0.92894000  0.18222000  0.97891000  1.0
  Pd  Pd1013  1  0.73449000  0.24581000  0.87462000  1.0
  Pd  Pd1014  1  0.25550000  0.00290000  0.54617000  1.0
  Pd  Pd1015  1  0.33075000  0.72890000  0.52375000  1.0
  Pd  Pd1016  1  0.45410000  0.92959000  0.43772000  1.0
  Pd  Pd1017  1  0.18492000  0.02324000  0.40065000  1.0
  Pd  Pd1018  1  0.07106000  0.81778000  0.47891000  1.0
  Pd  Pd1019  1  0.26551000  0.75419000  0.37462000  1.0
  Pd  Pd1020  1  0.49710000  0.75550000  0.79617000  1.0
  Pd  Pd1021  1  0.77110000  0.83075000  0.77375000  1.0
  Pd  Pd1022  1  0.57041000  0.95410000  0.68772000  1.0
  Pd  Pd1023  1  0.47676000  0.68492000  0.65065000  1.0
  Pd  Pd1024  1  0.68222000  0.57106000  0.72891000  1.0
  Pd  Pd1025  1  0.74581000  0.76551000  0.62462000  1.0
  Pd  Pd1026  1  0.50290000  0.24450000  0.29617000  1.0
  Pd  Pd1027  1  0.22890000  0.16925000  0.27375000  1.0
  Pd  Pd1028  1  0.42959000  0.04590000  0.18772000  1.0
  Pd  Pd1029  1  0.52324000  0.31508000  0.15065000  1.0
  Pd  Pd1030  1  0.31778000  0.42894000  0.22891000  1.0
  Pd  Pd1031  1  0.25419000  0.23449000  0.12462000  1.0
  C  C1032  1  0.63730000  0.54140000  0.19690000  1.0
  C  C1033  1  0.66140000  0.52340000  0.16710000  1.0
  C  C1034  1  0.61470000  0.50010000  0.14630000  1.0
  C  C1035  1  0.60580000  0.49930000  0.20980000  1.0
  C  C1036  1  0.60260000  0.59290000  0.19230000  1.0
  C  C1037  1  0.87840000  0.47880000  0.21790000  1.0
  C  C1038  1  0.85460000  0.42440000  0.20630000  1.0
  C  C1039  1  0.89310000  0.39260000  0.18620000  1.0
  C  C1040  1  0.90030000  0.51070000  0.19260000  1.0
  C  C1041  1  0.92110000  0.47050000  0.24220000  1.0
  C  C1042  1  0.82400000  0.67760000  0.18050000  1.0
  C  C1043  1  0.80820000  0.73160000  0.16630000  1.0
  C  C1044  1  0.83010000  0.73570000  0.13420000  1.0
  C  C1045  1  0.88480000  0.67010000  0.17810000  1.0
  C  C1046  1  0.79500000  0.63230000  0.16800000  1.0
  C  C1047  1  0.82130000  0.84410000  0.28040000  1.0
  C  C1048  1  0.86980000  0.86310000  0.26180000  1.0
  C  C1049  1  0.87420000  0.92840000  0.25940000  1.0
  C  C1050  1  0.77250000  0.87340000  0.27250000  1.0
  C  C1051  1  0.83050000  0.84950000  0.31460000  1.0
  C  C1052  1  0.97780000  0.65930000  0.26490000  1.0
  C  C1053  1  0.02190000  0.65980000  0.28870000  1.0
  C  C1054  1  0.07410000  0.68330000  0.27950000  1.0
  C  C1055  1  0.99260000  0.62130000  0.24180000  1.0
  C  C1056  1  0.96700000  0.71290000  0.25150000  1.0
  C  C1057  1  0.89900000  0.47590000  0.34960000  1.0
  C  C1058  1  0.95280000  0.46120000  0.33720000  1.0
  C  C1059  1  0.98160000  0.41550000  0.35430000  1.0
  C  C1060  1  0.90290000  0.49640000  0.38010000  1.0
  C  C1061  1  0.85740000  0.43140000  0.34680000  1.0
  C  C1062  1  0.69190000  0.41440000  0.29010000  1.0
  C  C1063  1  0.69650000  0.37640000  0.31560000  1.0
  C  C1064  1  0.67980000  0.31850000  0.30770000  1.0
  C  C1065  1  0.63360000  0.41850000  0.28170000  1.0
  C  C1066  1  0.72550000  0.39910000  0.26470000  1.0
  C  C1067  1  0.71060000  0.55390000  0.40150000  1.0
  C  C1068  1  0.65830000  0.52530000  0.40770000  1.0
  C  C1069  1  0.64840000  0.51600000  0.44110000  1.0
  C  C1070  1  0.76070000  0.52300000  0.41020000  1.0
  C  C1071  1  0.71190000  0.61060000  0.41510000  1.0
  C  C1072  1  0.54140000  0.57760000  0.30580000  1.0
  C  C1073  1  0.49970000  0.61950000  0.31110000  1.0
  C  C1074  1  0.44690000  0.59700000  0.31790000  1.0
  C  C1075  1  0.52920000  0.54460000  0.27910000  1.0
  C  C1076  1  0.55260000  0.54300000  0.33140000  1.0
  C  C1077  1  0.63000000  0.77430000  0.23350000  1.0
  C  C1078  1  0.57590000  0.75580000  0.22000000  1.0
  C  C1079  1  0.55040000  0.80030000  0.20060000  1.0
  C  C1080  1  0.62010000  0.82350000  0.25290000  1.0
  C  C1081  1  0.67320000  0.78370000  0.21060000  1.0
  C  C1082  1  0.65520000  0.78760000  0.35020000  1.0
  C  C1083  1  0.65490000  0.79540000  0.38340000  1.0
  C  C1084  1  0.62350000  0.84630000  0.39300000  1.0
  C  C1085  1  0.67520000  0.83670000  0.33510000  1.0
  C  C1086  1  0.60130000  0.77270000  0.33590000  1.0
  C  C1087  1  0.87810000  0.68930000  0.38710000  1.0
  C  C1088  1  0.88200000  0.74570000  0.39540000  1.0
  C  C1089  1  0.92280000  0.75590000  0.41890000  1.0
  C  C1090  1  0.86230000  0.65210000  0.41050000  1.0
  C  C1091  1  0.93060000  0.67000000  0.37380000  1.0
  C  C1092  1  0.87030000  0.42990000  0.05980000  1.0
  C  C1093  1  0.83350000  0.45400000  0.03400000  1.0
  C  C1094  1  0.36270000  0.45860000  0.69690000  1.0
  C  C1095  1  0.33860000  0.47660000  0.66710000  1.0
  C  C1096  1  0.38530000  0.49990000  0.64630000  1.0
  C  C1097  1  0.39420000  0.50070000  0.70980000  1.0
  C  C1098  1  0.39740000  0.40710000  0.69230000  1.0
  C  C1099  1  0.12160000  0.52120000  0.71790000  1.0
  C  C1100  1  0.14540000  0.57560000  0.70630000  1.0
  C  C1101  1  0.10690000  0.60740000  0.68620000  1.0
  C  C1102  1  0.09970000  0.48930000  0.69260000  1.0
  C  C1103  1  0.07890000  0.52950000  0.74220000  1.0
  C  C1104  1  0.17600000  0.32240000  0.68050000  1.0
  C  C1105  1  0.19180000  0.26840000  0.66630000  1.0
  C  C1106  1  0.16990000  0.26430000  0.63420000  1.0
  C  C1107  1  0.11520000  0.32990000  0.67810000  1.0
  C  C1108  1  0.20500000  0.36770000  0.66800000  1.0
  C  C1109  1  0.17870000  0.15590000  0.78040000  1.0
  C  C1110  1  0.13020000  0.13690000  0.76180000  1.0
  C  C1111  1  0.12580000  0.07160000  0.75940000  1.0
  C  C1112  1  0.22750000  0.12660000  0.77250000  1.0
  C  C1113  1  0.16950000  0.15050000  0.81460000  1.0
  C  C1114  1  0.02220000  0.34070000  0.76490000  1.0
  C  C1115  1  0.97810000  0.34020000  0.78870000  1.0
  C  C1116  1  0.92590000  0.31670000  0.77950000  1.0
  C  C1117  1  0.00740000  0.37870000  0.74180000  1.0
  C  C1118  1  0.03300000  0.28710000  0.75150000  1.0
  C  C1119  1  0.10100000  0.52410000  0.84960000  1.0
  C  C1120  1  0.04720000  0.53880000  0.83720000  1.0
  C  C1121  1  0.01840000  0.58450000  0.85430000  1.0
  C  C1122  1  0.09710000  0.50360000  0.88010000  1.0
  C  C1123  1  0.14260000  0.56860000  0.84680000  1.0
  C  C1124  1  0.30810000  0.58560000  0.79010000  1.0
  C  C1125  1  0.30350000  0.62360000  0.81560000  1.0
  C  C1126  1  0.32020000  0.68150000  0.80770000  1.0
  C  C1127  1  0.36640000  0.58150000  0.78170000  1.0
  C  C1128  1  0.27450000  0.60090000  0.76470000  1.0
  C  C1129  1  0.28940000  0.44610000  0.90150000  1.0
  C  C1130  1  0.34170000  0.47470000  0.90770000  1.0
  C  C1131  1  0.35160000  0.48400000  0.94110000  1.0
  C  C1132  1  0.23930000  0.47700000  0.91020000  1.0
  C  C1133  1  0.28810000  0.38940000  0.91510000  1.0
  C  C1134  1  0.45860000  0.42240000  0.80580000  1.0
  C  C1135  1  0.50030000  0.38050000  0.81110000  1.0
  C  C1136  1  0.55310000  0.40300000  0.81790000  1.0
  C  C1137  1  0.47080000  0.45540000  0.77910000  1.0
  C  C1138  1  0.44740000  0.45700000  0.83140000  1.0
  C  C1139  1  0.37000000  0.22570000  0.73350000  1.0
  C  C1140  1  0.42410000  0.24420000  0.72000000  1.0
  C  C1141  1  0.44960000  0.19970000  0.70060000  1.0
  C  C1142  1  0.37990000  0.17650000  0.75290000  1.0
  C  C1143  1  0.32680000  0.21630000  0.71060000  1.0
  C  C1144  1  0.34480000  0.21240000  0.85020000  1.0
  C  C1145  1  0.34510000  0.20460000  0.88340000  1.0
  C  C1146  1  0.37650000  0.15370000  0.89300000  1.0
  C  C1147  1  0.32480000  0.16330000  0.83510000  1.0
  C  C1148  1  0.39870000  0.22730000  0.83590000  1.0
  C  C1149  1  0.12190000  0.31070000  0.88710000  1.0
  C  C1150  1  0.11800000  0.25430000  0.89540000  1.0
  C  C1151  1  0.07720000  0.24410000  0.91890000  1.0
  C  C1152  1  0.13770000  0.34790000  0.91050000  1.0
  C  C1153  1  0.06940000  0.33000000  0.87380000  1.0
  C  C1154  1  0.12970000  0.57010000  0.55980000  1.0
  C  C1155  1  0.16650000  0.54600000  0.53400000  1.0
  C  C1156  1  0.95860000  0.13730000  0.44690000  1.0
  C  C1157  1  0.97660000  0.16140000  0.41710000  1.0
  C  C1158  1  0.99990000  0.11470000  0.39630000  1.0
  C  C1159  1  0.00070000  0.10580000  0.45980000  1.0
  C  C1160  1  0.90710000  0.10260000  0.44230000  1.0
  C  C1161  1  0.02120000  0.37840000  0.46790000  1.0
  C  C1162  1  0.07560000  0.35460000  0.45630000  1.0
  C  C1163  1  0.10740000  0.39310000  0.43620000  1.0
  C  C1164  1  0.98930000  0.40030000  0.44260000  1.0
  C  C1165  1  0.02950000  0.42110000  0.49220000  1.0
  C  C1166  1  0.82240000  0.32400000  0.43050000  1.0
  C  C1167  1  0.76840000  0.30820000  0.41630000  1.0
  C  C1168  1  0.76430000  0.33010000  0.38420000  1.0
  C  C1169  1  0.82990000  0.38480000  0.42810000  1.0
  C  C1170  1  0.86770000  0.29500000  0.41800000  1.0
  C  C1171  1  0.65590000  0.32130000  0.53040000  1.0
  C  C1172  1  0.63690000  0.36980000  0.51180000  1.0
  C  C1173  1  0.57160000  0.37420000  0.50940000  1.0
  C  C1174  1  0.62660000  0.27250000  0.52250000  1.0
  C  C1175  1  0.65050000  0.33050000  0.56460000  1.0
  C  C1176  1  0.84070000  0.47780000  0.51490000  1.0
  C  C1177  1  0.84020000  0.52190000  0.53870000  1.0
  C  C1178  1  0.81670000  0.57410000  0.52950000  1.0
  C  C1179  1  0.87870000  0.49260000  0.49180000  1.0
  C  C1180  1  0.78710000  0.46700000  0.50150000  1.0
  C  C1181  1  0.02410000  0.39900000  0.59960000  1.0
  C  C1182  1  0.03880000  0.45280000  0.58720000  1.0
  C  C1183  1  0.08450000  0.48160000  0.60430000  1.0
  C  C1184  1  0.00360000  0.40290000  0.63010000  1.0
  C  C1185  1  0.06860000  0.35740000  0.59680000  1.0
  C  C1186  1  0.08560000  0.19190000  0.54010000  1.0
  C  C1187  1  0.12360000  0.19650000  0.56560000  1.0
  C  C1188  1  0.18150000  0.17980000  0.55770000  1.0
  C  C1189  1  0.08150000  0.13360000  0.53170000  1.0
  C  C1190  1  0.10090000  0.22550000  0.51470000  1.0
  C  C1191  1  0.94610000  0.21060000  0.65150000  1.0
  C  C1192  1  0.97470000  0.15830000  0.65770000  1.0
  C  C1193  1  0.98400000  0.14840000  0.69110000  1.0
  C  C1194  1  0.97700000  0.26070000  0.66020000  1.0
  C  C1195  1  0.88940000  0.21190000  0.66510000  1.0
  C  C1196  1  0.92240000  0.04140000  0.55580000  1.0
  C  C1197  1  0.88050000  0.99970000  0.56110000  1.0
  C  C1198  1  0.90300000  0.94690000  0.56790000  1.0
  C  C1199  1  0.95540000  0.02920000  0.52910000  1.0
  C  C1200  1  0.95700000  0.05260000  0.58140000  1.0
  C  C1201  1  0.72570000  0.13000000  0.48350000  1.0
  C  C1202  1  0.74420000  0.07590000  0.47000000  1.0
  C  C1203  1  0.69970000  0.05040000  0.45060000  1.0
  C  C1204  1  0.67650000  0.12010000  0.50290000  1.0
  C  C1205  1  0.71630000  0.17320000  0.46060000  1.0
  C  C1206  1  0.71240000  0.15520000  0.60020000  1.0
  C  C1207  1  0.70460000  0.15490000  0.63340000  1.0
  C  C1208  1  0.65370000  0.12350000  0.64300000  1.0
  C  C1209  1  0.66330000  0.17520000  0.58510000  1.0
  C  C1210  1  0.72730000  0.10130000  0.58590000  1.0
  C  C1211  1  0.81070000  0.37810000  0.63710000  1.0
  C  C1212  1  0.75430000  0.38200000  0.64540000  1.0
  C  C1213  1  0.74410000  0.42280000  0.66890000  1.0
  C  C1214  1  0.84790000  0.36230000  0.66050000  1.0
  C  C1215  1  0.83000000  0.43060000  0.62380000  1.0
  C  C1216  1  0.07010000  0.37030000  0.30980000  1.0
  C  C1217  1  0.04600000  0.33350000  0.28400000  1.0
  C  C1218  1  0.04140000  0.86270000  0.94690000  1.0
  C  C1219  1  0.02340000  0.83860000  0.91710000  1.0
  C  C1220  1  0.00010000  0.88530000  0.89630000  1.0
  C  C1221  1  0.99930000  0.89420000  0.95980000  1.0
  C  C1222  1  0.09290000  0.89740000  0.94230000  1.0
  C  C1223  1  0.97880000  0.62160000  0.96790000  1.0
  C  C1224  1  0.92440000  0.64540000  0.95630000  1.0
  C  C1225  1  0.89260000  0.60690000  0.93620000  1.0
  C  C1226  1  0.01070000  0.59970000  0.94260000  1.0
  C  C1227  1  0.97050000  0.57890000  0.99220000  1.0
  C  C1228  1  0.17760000  0.67600000  0.93050000  1.0
  C  C1229  1  0.23160000  0.69180000  0.91630000  1.0
  C  C1230  1  0.23570000  0.66990000  0.88420000  1.0
  C  C1231  1  0.17010000  0.61520000  0.92810000  1.0
  C  C1232  1  0.13230000  0.70500000  0.91800000  1.0
  C  C1233  1  0.34410000  0.67870000  0.03040000  1.0
  C  C1234  1  0.36310000  0.63020000  0.01180000  1.0
  C  C1235  1  0.42840000  0.62580000  0.00940000  1.0
  C  C1236  1  0.37340000  0.72750000  0.02250000  1.0
  C  C1237  1  0.34950000  0.66950000  0.06460000  1.0
  C  C1238  1  0.15930000  0.52220000  0.01490000  1.0
  C  C1239  1  0.15980000  0.47810000  0.03870000  1.0
  C  C1240  1  0.18330000  0.42590000  0.02950000  1.0
  C  C1241  1  0.12130000  0.50740000  0.99180000  1.0
  C  C1242  1  0.21290000  0.53300000  0.00150000  1.0
  C  C1243  1  0.97590000  0.60100000  0.09960000  1.0
  C  C1244  1  0.96120000  0.54720000  0.08720000  1.0
  C  C1245  1  0.91550000  0.51840000  0.10430000  1.0
  C  C1246  1  0.99640000  0.59710000  0.13010000  1.0
  C  C1247  1  0.93140000  0.64260000  0.09680000  1.0
  C  C1248  1  0.91440000  0.80810000  0.04010000  1.0
  C  C1249  1  0.87640000  0.80350000  0.06560000  1.0
  C  C1250  1  0.81850000  0.82020000  0.05770000  1.0
  C  C1251  1  0.91850000  0.86640000  0.03170000  1.0
  C  C1252  1  0.89910000  0.77450000  0.01470000  1.0
  C  C1253  1  0.05390000  0.78940000  0.15150000  1.0
  C  C1254  1  0.02530000  0.84170000  0.15770000  1.0
  C  C1255  1  0.01600000  0.85160000  0.19110000  1.0
  C  C1256  1  0.02300000  0.73930000  0.16020000  1.0
  C  C1257  1  0.11060000  0.78810000  0.16510000  1.0
  C  C1258  1  0.07760000  0.95860000  0.05580000  1.0
  C  C1259  1  0.11950000  0.00030000  0.06110000  1.0
  C  C1260  1  0.09700000  0.05310000  0.06790000  1.0
  C  C1261  1  0.04460000  0.97080000  0.02910000  1.0
  C  C1262  1  0.04300000  0.94740000  0.08140000  1.0
  C  C1263  1  0.27430000  0.87000000  0.98350000  1.0
  C  C1264  1  0.25580000  0.92410000  0.97000000  1.0
  C  C1265  1  0.30030000  0.94960000  0.95060000  1.0
  C  C1266  1  0.32350000  0.87990000  0.00290000  1.0
  C  C1267  1  0.28370000  0.82680000  0.96060000  1.0
  C  C1268  1  0.28760000  0.84480000  0.10020000  1.0
  C  C1269  1  0.29540000  0.84510000  0.13340000  1.0
  C  C1270  1  0.34630000  0.87650000  0.14300000  1.0
  C  C1271  1  0.33670000  0.82480000  0.08510000  1.0
  C  C1272  1  0.27270000  0.89870000  0.08590000  1.0
  C  C1273  1  0.18930000  0.62190000  0.13710000  1.0
  C  C1274  1  0.24570000  0.61800000  0.14540000  1.0
  C  C1275  1  0.25590000  0.57720000  0.16890000  1.0
  C  C1276  1  0.15210000  0.63770000  0.16050000  1.0
  C  C1277  1  0.17000000  0.56940000  0.12380000  1.0
  C  C1278  1  0.92990000  0.62970000  0.80980000  1.0
  C  C1279  1  0.95400000  0.66650000  0.78400000  1.0
  C  C1280  1  0.86270000  0.04140000  0.05310000  1.0
  C  C1281  1  0.83860000  0.02340000  0.08290000  1.0
  C  C1282  1  0.88530000  0.00010000  0.10370000  1.0
  C  C1283  1  0.89420000  0.99930000  0.04020000  1.0
  C  C1284  1  0.89740000  0.09290000  0.05770000  1.0
  C  C1285  1  0.62160000  0.97880000  0.03210000  1.0
  C  C1286  1  0.64540000  0.92440000  0.04370000  1.0
  C  C1287  1  0.60690000  0.89260000  0.06380000  1.0
  C  C1288  1  0.59970000  0.01070000  0.05740000  1.0
  C  C1289  1  0.57890000  0.97050000  0.00780000  1.0
  C  C1290  1  0.67600000  0.17760000  0.06950000  1.0
  C  C1291  1  0.69180000  0.23160000  0.08370000  1.0
  C  C1292  1  0.66990000  0.23570000  0.11580000  1.0
  C  C1293  1  0.61520000  0.17010000  0.07190000  1.0
  C  C1294  1  0.70500000  0.13230000  0.08200000  1.0
  C  C1295  1  0.67870000  0.34410000  0.96960000  1.0
  C  C1296  1  0.63020000  0.36310000  0.98820000  1.0
  C  C1297  1  0.62580000  0.42840000  0.99060000  1.0
  C  C1298  1  0.72750000  0.37340000  0.97750000  1.0
  C  C1299  1  0.66950000  0.34950000  0.93540000  1.0
  C  C1300  1  0.52220000  0.15930000  0.98510000  1.0
  C  C1301  1  0.47810000  0.15980000  0.96130000  1.0
  C  C1302  1  0.42590000  0.18330000  0.97050000  1.0
  C  C1303  1  0.50740000  0.12130000  0.00820000  1.0
  C  C1304  1  0.53300000  0.21290000  0.99850000  1.0
  C  C1305  1  0.60100000  0.97590000  0.90040000  1.0
  C  C1306  1  0.54720000  0.96120000  0.91280000  1.0
  C  C1307  1  0.51840000  0.91550000  0.89570000  1.0
  C  C1308  1  0.59710000  0.99640000  0.86990000  1.0
  C  C1309  1  0.64260000  0.93140000  0.90320000  1.0
  C  C1310  1  0.80810000  0.91440000  0.95990000  1.0
  C  C1311  1  0.80350000  0.87640000  0.93440000  1.0
  C  C1312  1  0.82020000  0.81850000  0.94230000  1.0
  C  C1313  1  0.86640000  0.91850000  0.96830000  1.0
  C  C1314  1  0.77450000  0.89910000  0.98530000  1.0
  C  C1315  1  0.78940000  0.05390000  0.84850000  1.0
  C  C1316  1  0.84170000  0.02530000  0.84230000  1.0
  C  C1317  1  0.85160000  0.01600000  0.80890000  1.0
  C  C1318  1  0.73930000  0.02300000  0.83980000  1.0
  C  C1319  1  0.78810000  0.11060000  0.83490000  1.0
  C  C1320  1  0.95860000  0.07760000  0.94420000  1.0
  C  C1321  1  0.00030000  0.11950000  0.93890000  1.0
  C  C1322  1  0.05310000  0.09700000  0.93210000  1.0
  C  C1323  1  0.97080000  0.04460000  0.97090000  1.0
  C  C1324  1  0.94740000  0.04300000  0.91860000  1.0
  C  C1325  1  0.87000000  0.27430000  0.01650000  1.0
  C  C1326  1  0.92410000  0.25580000  0.03000000  1.0
  C  C1327  1  0.94960000  0.30030000  0.04940000  1.0
  C  C1328  1  0.87990000  0.32350000  0.99710000  1.0
  C  C1329  1  0.82680000  0.28370000  0.03940000  1.0
  C  C1330  1  0.84480000  0.28760000  0.89980000  1.0
  C  C1331  1  0.84510000  0.29540000  0.86660000  1.0
  C  C1332  1  0.87650000  0.34630000  0.85700000  1.0
  C  C1333  1  0.82480000  0.33670000  0.91490000  1.0
  C  C1334  1  0.89870000  0.27270000  0.91410000  1.0
  C  C1335  1  0.62190000  0.18930000  0.86290000  1.0
  C  C1336  1  0.61800000  0.24570000  0.85460000  1.0
  C  C1337  1  0.57720000  0.25590000  0.83110000  1.0
  C  C1338  1  0.63770000  0.15210000  0.83950000  1.0
  C  C1339  1  0.56940000  0.17000000  0.87620000  1.0
  C  C1340  1  0.62970000  0.92990000  0.19020000  1.0
  C  C1341  1  0.66650000  0.95400000  0.21600000  1.0
  C  C1342  1  0.13730000  0.95860000  0.55310000  1.0
  C  C1343  1  0.16140000  0.97660000  0.58290000  1.0
  C  C1344  1  0.11470000  0.99990000  0.60370000  1.0
  C  C1345  1  0.10580000  0.00070000  0.54020000  1.0
  C  C1346  1  0.10260000  0.90710000  0.55770000  1.0
  C  C1347  1  0.37840000  0.02120000  0.53210000  1.0
  C  C1348  1  0.35460000  0.07560000  0.54370000  1.0
  C  C1349  1  0.39310000  0.10740000  0.56380000  1.0
  C  C1350  1  0.40030000  0.98930000  0.55740000  1.0
  C  C1351  1  0.42110000  0.02950000  0.50780000  1.0
  C  C1352  1  0.32400000  0.82240000  0.56950000  1.0
  C  C1353  1  0.30820000  0.76840000  0.58370000  1.0
  C  C1354  1  0.33010000  0.76430000  0.61580000  1.0
  C  C1355  1  0.38480000  0.82990000  0.57190000  1.0
  C  C1356  1  0.29500000  0.86770000  0.58200000  1.0
  C  C1357  1  0.32130000  0.65590000  0.46960000  1.0
  C  C1358  1  0.36980000  0.63690000  0.48820000  1.0
  C  C1359  1  0.37420000  0.57160000  0.49060000  1.0
  C  C1360  1  0.27250000  0.62660000  0.47750000  1.0
  C  C1361  1  0.33050000  0.65050000  0.43540000  1.0
  C  C1362  1  0.47780000  0.84070000  0.48510000  1.0
  C  C1363  1  0.52190000  0.84020000  0.46130000  1.0
  C  C1364  1  0.57410000  0.81670000  0.47050000  1.0
  C  C1365  1  0.49260000  0.87870000  0.50820000  1.0
  C  C1366  1  0.46700000  0.78710000  0.49850000  1.0
  C  C1367  1  0.39900000  0.02410000  0.40040000  1.0
  C  C1368  1  0.45280000  0.03880000  0.41280000  1.0
  C  C1369  1  0.48160000  0.08450000  0.39570000  1.0
  C  C1370  1  0.40290000  0.00360000  0.36990000  1.0
  C  C1371  1  0.35740000  0.06860000  0.40320000  1.0
  C  C1372  1  0.19190000  0.08560000  0.45990000  1.0
  C  C1373  1  0.19650000  0.12360000  0.43440000  1.0
  C  C1374  1  0.17980000  0.18150000  0.44230000  1.0
  C  C1375  1  0.13360000  0.08150000  0.46830000  1.0
  C  C1376  1  0.22550000  0.10090000  0.48530000  1.0
  C  C1377  1  0.21060000  0.94610000  0.34850000  1.0
  C  C1378  1  0.15830000  0.97470000  0.34230000  1.0
  C  C1379  1  0.14840000  0.98400000  0.30890000  1.0
  C  C1380  1  0.26070000  0.97700000  0.33980000  1.0
  C  C1381  1  0.21190000  0.88940000  0.33490000  1.0
  C  C1382  1  0.04140000  0.92240000  0.44420000  1.0
  C  C1383  1  0.99970000  0.88050000  0.43890000  1.0
  C  C1384  1  0.94690000  0.90300000  0.43210000  1.0
  C  C1385  1  0.02920000  0.95540000  0.47090000  1.0
  C  C1386  1  0.05260000  0.95700000  0.41860000  1.0
  C  C1387  1  0.13000000  0.72570000  0.51650000  1.0
  C  C1388  1  0.07590000  0.74420000  0.53000000  1.0
  C  C1389  1  0.05040000  0.69970000  0.54940000  1.0
  C  C1390  1  0.12010000  0.67650000  0.49710000  1.0
  C  C1391  1  0.17320000  0.71630000  0.53940000  1.0
  C  C1392  1  0.15520000  0.71240000  0.39980000  1.0
  C  C1393  1  0.15490000  0.70460000  0.36660000  1.0
  C  C1394  1  0.12350000  0.65370000  0.35700000  1.0
  C  C1395  1  0.17520000  0.66330000  0.41490000  1.0
  C  C1396  1  0.10130000  0.72730000  0.41410000  1.0
  C  C1397  1  0.37810000  0.81070000  0.36290000  1.0
  C  C1398  1  0.38200000  0.75430000  0.35460000  1.0
  C  C1399  1  0.42280000  0.74410000  0.33110000  1.0
  C  C1400  1  0.36230000  0.84790000  0.33950000  1.0
  C  C1401  1  0.43060000  0.83000000  0.37620000  1.0
  C  C1402  1  0.37030000  0.07010000  0.69020000  1.0
  C  C1403  1  0.33350000  0.04600000  0.71600000  1.0
  C  C1404  1  0.54140000  0.63730000  0.80310000  1.0
  C  C1405  1  0.52340000  0.66140000  0.83290000  1.0
  C  C1406  1  0.50010000  0.61470000  0.85370000  1.0
  C  C1407  1  0.49930000  0.60580000  0.79020000  1.0
  C  C1408  1  0.59290000  0.60260000  0.80770000  1.0
  C  C1409  1  0.47880000  0.87840000  0.78210000  1.0
  C  C1410  1  0.42440000  0.85460000  0.79370000  1.0
  C  C1411  1  0.39260000  0.89310000  0.81380000  1.0
  C  C1412  1  0.51070000  0.90030000  0.80740000  1.0
  C  C1413  1  0.47050000  0.92110000  0.75780000  1.0
  C  C1414  1  0.67760000  0.82400000  0.81950000  1.0
  C  C1415  1  0.73160000  0.80820000  0.83370000  1.0
  C  C1416  1  0.73570000  0.83010000  0.86580000  1.0
  C  C1417  1  0.67010000  0.88480000  0.82190000  1.0
  C  C1418  1  0.63230000  0.79500000  0.83200000  1.0
  C  C1419  1  0.84410000  0.82130000  0.71960000  1.0
  C  C1420  1  0.86310000  0.86980000  0.73820000  1.0
  C  C1421  1  0.92840000  0.87420000  0.74060000  1.0
  C  C1422  1  0.87340000  0.77250000  0.72750000  1.0
  C  C1423  1  0.84950000  0.83050000  0.68540000  1.0
  C  C1424  1  0.65930000  0.97780000  0.73510000  1.0
  C  C1425  1  0.65980000  0.02190000  0.71130000  1.0
  C  C1426  1  0.68330000  0.07410000  0.72050000  1.0
  C  C1427  1  0.62130000  0.99260000  0.75820000  1.0
  C  C1428  1  0.71290000  0.96700000  0.74850000  1.0
  C  C1429  1  0.47590000  0.89900000  0.65040000  1.0
  C  C1430  1  0.46120000  0.95280000  0.66280000  1.0
  C  C1431  1  0.41550000  0.98160000  0.64570000  1.0
  C  C1432  1  0.49640000  0.90290000  0.61990000  1.0
  C  C1433  1  0.43140000  0.85740000  0.65320000  1.0
  C  C1434  1  0.41440000  0.69190000  0.70990000  1.0
  C  C1435  1  0.37640000  0.69650000  0.68440000  1.0
  C  C1436  1  0.31850000  0.67980000  0.69230000  1.0
  C  C1437  1  0.41850000  0.63360000  0.71830000  1.0
  C  C1438  1  0.39910000  0.72550000  0.73530000  1.0
  C  C1439  1  0.55390000  0.71060000  0.59850000  1.0
  C  C1440  1  0.52530000  0.65830000  0.59230000  1.0
  C  C1441  1  0.51600000  0.64840000  0.55890000  1.0
  C  C1442  1  0.52300000  0.76070000  0.58980000  1.0
  C  C1443  1  0.61060000  0.71190000  0.58490000  1.0
  C  C1444  1  0.57760000  0.54140000  0.69420000  1.0
  C  C1445  1  0.61950000  0.49970000  0.68890000  1.0
  C  C1446  1  0.59700000  0.44690000  0.68210000  1.0
  C  C1447  1  0.54460000  0.52920000  0.72090000  1.0
  C  C1448  1  0.54300000  0.55260000  0.66860000  1.0
  C  C1449  1  0.77430000  0.63000000  0.76650000  1.0
  C  C1450  1  0.75580000  0.57590000  0.78000000  1.0
  C  C1451  1  0.80030000  0.55040000  0.79940000  1.0
  C  C1452  1  0.82350000  0.62010000  0.74710000  1.0
  C  C1453  1  0.78370000  0.67320000  0.78940000  1.0
  C  C1454  1  0.78760000  0.65520000  0.64980000  1.0
  C  C1455  1  0.79540000  0.65490000  0.61660000  1.0
  C  C1456  1  0.84630000  0.62350000  0.60700000  1.0
  C  C1457  1  0.83670000  0.67520000  0.66490000  1.0
  C  C1458  1  0.77270000  0.60130000  0.66410000  1.0
  C  C1459  1  0.68930000  0.87810000  0.61290000  1.0
  C  C1460  1  0.74570000  0.88200000  0.60460000  1.0
  C  C1461  1  0.75590000  0.92280000  0.58110000  1.0
  C  C1462  1  0.65210000  0.86230000  0.58950000  1.0
  C  C1463  1  0.67000000  0.93060000  0.62620000  1.0
  C  C1464  1  0.42990000  0.87030000  0.94020000  1.0
  C  C1465  1  0.45400000  0.83350000  0.96600000  1.0
  C  C1466  1  0.45860000  0.36270000  0.30310000  1.0
  C  C1467  1  0.47660000  0.33860000  0.33290000  1.0
  C  C1468  1  0.49990000  0.38530000  0.35370000  1.0
  C  C1469  1  0.50070000  0.39420000  0.29020000  1.0
  C  C1470  1  0.40710000  0.39740000  0.30770000  1.0
  C  C1471  1  0.52120000  0.12160000  0.28210000  1.0
  C  C1472  1  0.57560000  0.14540000  0.29370000  1.0
  C  C1473  1  0.60740000  0.10690000  0.31380000  1.0
  C  C1474  1  0.48930000  0.09970000  0.30740000  1.0
  C  C1475  1  0.52950000  0.07890000  0.25780000  1.0
  C  C1476  1  0.32240000  0.17600000  0.31950000  1.0
  C  C1477  1  0.26840000  0.19180000  0.33370000  1.0
  C  C1478  1  0.26430000  0.16990000  0.36580000  1.0
  C  C1479  1  0.32990000  0.11520000  0.32190000  1.0
  C  C1480  1  0.36770000  0.20500000  0.33200000  1.0
  C  C1481  1  0.15590000  0.17870000  0.21960000  1.0
  C  C1482  1  0.13690000  0.13020000  0.23820000  1.0
  C  C1483  1  0.07160000  0.12580000  0.24060000  1.0
  C  C1484  1  0.12660000  0.22750000  0.22750000  1.0
  C  C1485  1  0.15050000  0.16950000  0.18540000  1.0
  C  C1486  1  0.34070000  0.02220000  0.23510000  1.0
  C  C1487  1  0.34020000  0.97810000  0.21130000  1.0
  C  C1488  1  0.31670000  0.92590000  0.22050000  1.0
  C  C1489  1  0.37870000  0.00740000  0.25820000  1.0
  C  C1490  1  0.28710000  0.03300000  0.24850000  1.0
  C  C1491  1  0.52410000  0.10100000  0.15040000  1.0
  C  C1492  1  0.53880000  0.04720000  0.16280000  1.0
  C  C1493  1  0.58450000  0.01840000  0.14570000  1.0
  C  C1494  1  0.50360000  0.09710000  0.11990000  1.0
  C  C1495  1  0.56860000  0.14260000  0.15320000  1.0
  C  C1496  1  0.58560000  0.30810000  0.20990000  1.0
  C  C1497  1  0.62360000  0.30350000  0.18440000  1.0
  C  C1498  1  0.68150000  0.32020000  0.19230000  1.0
  C  C1499  1  0.58150000  0.36640000  0.21830000  1.0
  C  C1500  1  0.60090000  0.27450000  0.23530000  1.0
  C  C1501  1  0.44610000  0.28940000  0.09850000  1.0
  C  C1502  1  0.47470000  0.34170000  0.09230000  1.0
  C  C1503  1  0.48400000  0.35160000  0.05890000  1.0
  C  C1504  1  0.47700000  0.23930000  0.08980000  1.0
  C  C1505  1  0.38940000  0.28810000  0.08490000  1.0
  C  C1506  1  0.42240000  0.45860000  0.19420000  1.0
  C  C1507  1  0.38050000  0.50030000  0.18890000  1.0
  C  C1508  1  0.40300000  0.55310000  0.18210000  1.0
  C  C1509  1  0.45540000  0.47080000  0.22090000  1.0
  C  C1510  1  0.45700000  0.44740000  0.16860000  1.0
  C  C1511  1  0.22570000  0.37000000  0.26650000  1.0
  C  C1512  1  0.24420000  0.42410000  0.28000000  1.0
  C  C1513  1  0.19970000  0.44960000  0.29940000  1.0
  C  C1514  1  0.17650000  0.37990000  0.24710000  1.0
  C  C1515  1  0.21630000  0.32680000  0.28940000  1.0
  C  C1516  1  0.21240000  0.34480000  0.14980000  1.0
  C  C1517  1  0.20460000  0.34510000  0.11660000  1.0
  C  C1518  1  0.15370000  0.37650000  0.10700000  1.0
  C  C1519  1  0.16330000  0.32480000  0.16490000  1.0
  C  C1520  1  0.22730000  0.39870000  0.16410000  1.0
  C  C1521  1  0.31070000  0.12190000  0.11290000  1.0
  C  C1522  1  0.25430000  0.11800000  0.10460000  1.0
  C  C1523  1  0.24410000  0.07720000  0.08110000  1.0
  C  C1524  1  0.34790000  0.13770000  0.08950000  1.0
  C  C1525  1  0.33000000  0.06940000  0.12620000  1.0
  C  C1526  1  0.57010000  0.12970000  0.44020000  1.0
  C  C1527  1  0.54600000  0.16650000  0.46600000  1.0
  S  S1528  1  0.69517000  0.55910000  0.21963000  1.0
  S  S1529  1  0.82294000  0.51506000  0.23571000  1.0
  S  S1530  1  0.80555000  0.68532000  0.21844000  1.0
  S  S1531  1  0.81762000  0.77051000  0.27501000  1.0
  S  S1532  1  0.91706000  0.63588000  0.28407000  1.0
  S  S1533  1  0.87531000  0.53189000  0.32561000  1.0
  S  S1534  1  0.71530000  0.48088000  0.30295000  1.0
  S  S1535  1  0.70981000  0.56162000  0.36131000  1.0
  S  S1536  1  0.60550000  0.61529000  0.29927000  1.0
  S  S1537  1  0.65158000  0.71463000  0.25581000  1.0
  S  S1538  1  0.69927000  0.72883000  0.34272000  1.0
  S  S1539  1  0.82657000  0.68658000  0.35705000  1.0
  S  S1540  1  0.30483000  0.44090000  0.71963000  1.0
  S  S1541  1  0.17706000  0.48494000  0.73571000  1.0
  S  S1542  1  0.19445000  0.31468000  0.71844000  1.0
  S  S1543  1  0.18238000  0.22949000  0.77501000  1.0
  S  S1544  1  0.08294000  0.36412000  0.78407000  1.0
  S  S1545  1  0.12469000  0.46811000  0.82561000  1.0
  S  S1546  1  0.28470000  0.51912000  0.80295000  1.0
  S  S1547  1  0.29019000  0.43838000  0.86131000  1.0
  S  S1548  1  0.39450000  0.38471000  0.79927000  1.0
  S  S1549  1  0.34842000  0.28537000  0.75581000  1.0
  S  S1550  1  0.30073000  0.27117000  0.84272000  1.0
  S  S1551  1  0.17343000  0.31342000  0.85705000  1.0
  S  S1552  1  0.94090000  0.19517000  0.46963000  1.0
  S  S1553  1  0.98494000  0.32294000  0.48571000  1.0
  S  S1554  1  0.81468000  0.30555000  0.46844000  1.0
  S  S1555  1  0.72949000  0.31762000  0.52501000  1.0
  S  S1556  1  0.86412000  0.41706000  0.53407000  1.0
  S  S1557  1  0.96811000  0.37531000  0.57561000  1.0
  S  S1558  1  0.01912000  0.21530000  0.55295000  1.0
  S  S1559  1  0.93838000  0.20981000  0.61131000  1.0
  S  S1560  1  0.88471000  0.10550000  0.54927000  1.0
  S  S1561  1  0.78537000  0.15158000  0.50581000  1.0
  S  S1562  1  0.77117000  0.19927000  0.59272000  1.0
  S  S1563  1  0.81342000  0.32657000  0.60705000  1.0
  S  S1564  1  0.05910000  0.80483000  0.96963000  1.0
  S  S1565  1  0.01506000  0.67706000  0.98571000  1.0
  S  S1566  1  0.18532000  0.69445000  0.96844000  1.0
  S  S1567  1  0.27051000  0.68238000  0.02501000  1.0
  S  S1568  1  0.13588000  0.58294000  0.03407000  1.0
  S  S1569  1  0.03189000  0.62469000  0.07561000  1.0
  S  S1570  1  0.98088000  0.78470000  0.05295000  1.0
  S  S1571  1  0.06162000  0.79019000  0.11131000  1.0
  S  S1572  1  0.11529000  0.89450000  0.04927000  1.0
  S  S1573  1  0.21463000  0.84842000  0.00581000  1.0
  S  S1574  1  0.22883000  0.80073000  0.09272000  1.0
  S  S1575  1  0.18658000  0.67343000  0.10705000  1.0
  S  S1576  1  0.80483000  0.05910000  0.03037000  1.0
  S  S1577  1  0.67706000  0.01506000  0.01429000  1.0
  S  S1578  1  0.69445000  0.18532000  0.03156000  1.0
  S  S1579  1  0.68238000  0.27051000  0.97499000  1.0
  S  S1580  1  0.58294000  0.13588000  0.96593000  1.0
  S  S1581  1  0.62469000  0.03189000  0.92439000  1.0
  S  S1582  1  0.78470000  0.98088000  0.94705000  1.0
  S  S1583  1  0.79019000  0.06162000  0.88869000  1.0
  S  S1584  1  0.89450000  0.11529000  0.95073000  1.0
  S  S1585  1  0.84842000  0.21463000  0.99419000  1.0
  S  S1586  1  0.80073000  0.22883000  0.90728000  1.0
  S  S1587  1  0.67343000  0.18658000  0.89295000  1.0
  S  S1588  1  0.19517000  0.94090000  0.53037000  1.0
  S  S1589  1  0.32294000  0.98494000  0.51429000  1.0
  S  S1590  1  0.30555000  0.81468000  0.53156000  1.0
  S  S1591  1  0.31762000  0.72949000  0.47499000  1.0
  S  S1592  1  0.41706000  0.86412000  0.46593000  1.0
  S  S1593  1  0.37531000  0.96811000  0.42439000  1.0
  S  S1594  1  0.21530000  0.01912000  0.44705000  1.0
  S  S1595  1  0.20981000  0.93838000  0.38869000  1.0
  S  S1596  1  0.10550000  0.88471000  0.45073000  1.0
  S  S1597  1  0.15158000  0.78537000  0.49419000  1.0
  S  S1598  1  0.19927000  0.77117000  0.40728000  1.0
  S  S1599  1  0.32657000  0.81342000  0.39295000  1.0
  S  S1600  1  0.55910000  0.69517000  0.78037000  1.0
  S  S1601  1  0.51506000  0.82294000  0.76429000  1.0
  S  S1602  1  0.68532000  0.80555000  0.78156000  1.0
  S  S1603  1  0.77051000  0.81762000  0.72499000  1.0
  S  S1604  1  0.63588000  0.91706000  0.71593000  1.0
  S  S1605  1  0.53189000  0.87531000  0.67439000  1.0
  S  S1606  1  0.48088000  0.71530000  0.69705000  1.0
  S  S1607  1  0.56162000  0.70981000  0.63869000  1.0
  S  S1608  1  0.61529000  0.60550000  0.70073000  1.0
  S  S1609  1  0.71463000  0.65158000  0.74419000  1.0
  S  S1610  1  0.72883000  0.69927000  0.65728000  1.0
  S  S1611  1  0.68658000  0.82657000  0.64295000  1.0
  S  S1612  1  0.44090000  0.30483000  0.28037000  1.0
  S  S1613  1  0.48494000  0.17706000  0.26429000  1.0
  S  S1614  1  0.31468000  0.19445000  0.28156000  1.0
  S  S1615  1  0.22949000  0.18238000  0.22499000  1.0
  S  S1616  1  0.36412000  0.08294000  0.21593000  1.0
  S  S1617  1  0.46811000  0.12469000  0.17439000  1.0
  S  S1618  1  0.51912000  0.28470000  0.19705000  1.0
  S  S1619  1  0.43838000  0.29019000  0.13869000  1.0
  S  S1620  1  0.38471000  0.39450000  0.20073000  1.0
  S  S1621  1  0.28537000  0.34842000  0.24419000  1.0
  S  S1622  1  0.27117000  0.30073000  0.15728000  1.0
  S  S1623  1  0.31342000  0.17343000  0.14295000  1.0
  N  N1624  1  0.69940000  0.48170000  0.17220000  1.0
  N  N1625  1  0.80510000  0.43510000  0.18940000  1.0
  N  N1626  1  0.83290000  0.77800000  0.18220000  1.0
  N  N1627  1  0.86070000  0.84720000  0.23160000  1.0
  N  N1628  1  0.02650000  0.60540000  0.30360000  1.0
  N  N1629  1  0.98900000  0.50830000  0.33590000  1.0
  N  N1630  1  0.66890000  0.39700000  0.34140000  1.0
  N  N1631  1  0.65440000  0.47180000  0.39080000  1.0
  N  N1632  1  0.49790000  0.65810000  0.28620000  1.0
  N  N1633  1  0.53890000  0.73650000  0.24360000  1.0
  N  N1634  1  0.71140000  0.80040000  0.39370000  1.0
  N  N1635  1  0.82470000  0.76580000  0.40420000  1.0
  N  N1636  1  0.30060000  0.51830000  0.67220000  1.0
  N  N1637  1  0.19490000  0.56490000  0.68940000  1.0
  N  N1638  1  0.16710000  0.22200000  0.68220000  1.0
  N  N1639  1  0.13930000  0.15280000  0.73160000  1.0
  N  N1640  1  0.97350000  0.39460000  0.80360000  1.0
  N  N1641  1  0.01100000  0.49170000  0.83590000  1.0
  N  N1642  1  0.33110000  0.60300000  0.84140000  1.0
  N  N1643  1  0.34560000  0.52820000  0.89080000  1.0
  N  N1644  1  0.50210000  0.34190000  0.78620000  1.0
  N  N1645  1  0.46110000  0.26350000  0.74360000  1.0
  N  N1646  1  0.28860000  0.19960000  0.89370000  1.0
  N  N1647  1  0.17530000  0.23420000  0.90420000  1.0
  N  N1648  1  0.01830000  0.19940000  0.42220000  1.0
  N  N1649  1  0.06490000  0.30510000  0.43940000  1.0
  N  N1650  1  0.72200000  0.33290000  0.43220000  1.0
  N  N1651  1  0.65280000  0.36070000  0.48160000  1.0
  N  N1652  1  0.89460000  0.52650000  0.55360000  1.0
  N  N1653  1  0.99170000  0.48900000  0.58590000  1.0
  N  N1654  1  0.10300000  0.16890000  0.59140000  1.0
  N  N1655  1  0.02820000  0.15440000  0.64080000  1.0
  N  N1656  1  0.84190000  0.99790000  0.53620000  1.0
  N  N1657  1  0.76350000  0.03890000  0.49360000  1.0
  N  N1658  1  0.69960000  0.21140000  0.64370000  1.0
  N  N1659  1  0.73420000  0.32470000  0.65420000  1.0
  N  N1660  1  0.98170000  0.80060000  0.92220000  1.0
  N  N1661  1  0.93510000  0.69490000  0.93940000  1.0
  N  N1662  1  0.27800000  0.66710000  0.93220000  1.0
  N  N1663  1  0.34720000  0.63930000  0.98160000  1.0
  N  N1664  1  0.10540000  0.47350000  0.05360000  1.0
  N  N1665  1  0.00830000  0.51100000  0.08590000  1.0
  N  N1666  1  0.89700000  0.83110000  0.09140000  1.0
  N  N1667  1  0.97180000  0.84560000  0.14080000  1.0
  N  N1668  1  0.15810000  0.00210000  0.03620000  1.0
  N  N1669  1  0.23650000  0.96110000  0.99360000  1.0
  N  N1670  1  0.30040000  0.78860000  0.14370000  1.0
  N  N1671  1  0.26580000  0.67530000  0.15420000  1.0
  N  N1672  1  0.80060000  0.98170000  0.07780000  1.0
  N  N1673  1  0.69490000  0.93510000  0.06060000  1.0
  N  N1674  1  0.66710000  0.27800000  0.06780000  1.0
  N  N1675  1  0.63930000  0.34720000  0.01840000  1.0
  N  N1676  1  0.47350000  0.10540000  0.94640000  1.0
  N  N1677  1  0.51100000  0.00830000  0.91410000  1.0
  N  N1678  1  0.83110000  0.89700000  0.90860000  1.0
  N  N1679  1  0.84560000  0.97180000  0.85920000  1.0
  N  N1680  1  0.00210000  0.15810000  0.96380000  1.0
  N  N1681  1  0.96110000  0.23650000  0.00640000  1.0
  N  N1682  1  0.78860000  0.30040000  0.85630000  1.0
  N  N1683  1  0.67530000  0.26580000  0.84580000  1.0
  N  N1684  1  0.19940000  0.01830000  0.57780000  1.0
  N  N1685  1  0.30510000  0.06490000  0.56060000  1.0
  N  N1686  1  0.33290000  0.72200000  0.56780000  1.0
  N  N1687  1  0.36070000  0.65280000  0.51840000  1.0
  N  N1688  1  0.52650000  0.89460000  0.44640000  1.0
  N  N1689  1  0.48900000  0.99170000  0.41410000  1.0
  N  N1690  1  0.16890000  0.10300000  0.40860000  1.0
  N  N1691  1  0.15440000  0.02820000  0.35920000  1.0
  N  N1692  1  0.99790000  0.84190000  0.46380000  1.0
  N  N1693  1  0.03890000  0.76350000  0.50640000  1.0
  N  N1694  1  0.21140000  0.69960000  0.35630000  1.0
  N  N1695  1  0.32470000  0.73420000  0.34580000  1.0
  N  N1696  1  0.48170000  0.69940000  0.82780000  1.0
  N  N1697  1  0.43510000  0.80510000  0.81060000  1.0
  N  N1698  1  0.77800000  0.83290000  0.81780000  1.0
  N  N1699  1  0.84720000  0.86070000  0.76840000  1.0
  N  N1700  1  0.60540000  0.02650000  0.69640000  1.0
  N  N1701  1  0.50830000  0.98900000  0.66410000  1.0
  N  N1702  1  0.39700000  0.66890000  0.65860000  1.0
  N  N1703  1  0.47180000  0.65440000  0.60920000  1.0
  N  N1704  1  0.65810000  0.49790000  0.71380000  1.0
  N  N1705  1  0.73650000  0.53890000  0.75640000  1.0
  N  N1706  1  0.80040000  0.71140000  0.60630000  1.0
  N  N1707  1  0.76580000  0.82470000  0.59580000  1.0
  N  N1708  1  0.51830000  0.30060000  0.32780000  1.0
  N  N1709  1  0.56490000  0.19490000  0.31060000  1.0
  N  N1710  1  0.22200000  0.16710000  0.31780000  1.0
  N  N1711  1  0.15280000  0.13930000  0.26840000  1.0
  N  N1712  1  0.39460000  0.97350000  0.19640000  1.0
  N  N1713  1  0.49170000  0.01100000  0.16410000  1.0
  N  N1714  1  0.60300000  0.33110000  0.15860000  1.0
  N  N1715  1  0.52820000  0.34560000  0.10920000  1.0
  N  N1716  1  0.34190000  0.50210000  0.21380000  1.0
  N  N1717  1  0.26350000  0.46110000  0.25640000  1.0
  N  N1718  1  0.19960000  0.28860000  0.10630000  1.0
  N  N1719  1  0.23420000  0.17530000  0.09580000  1.0
  O  O1720  1  0.60890000  0.45140000  0.14640000  1.0
  O  O1721  1  0.58990000  0.53440000  0.13170000  1.0
  O  O1722  1  0.88260000  0.39130000  0.16023000  1.0
  O  O1723  1  0.93420000  0.37290000  0.19960000  1.0
  O  O1724  1  0.87100000  0.75650000  0.12900000  1.0
  O  O1725  1  0.79460000  0.71370000  0.11740000  1.0
  O  O1726  1  0.85510000  0.95490000  0.24140000  1.0
  O  O1727  1  0.90010000  0.94060000  0.28440000  1.0
  O  O1728  1  0.11070000  0.64970000  0.27450000  1.0
  O  O1729  1  0.07610000  0.73250000  0.27710000  1.0
  O  O1730  1  0.02260000  0.42980000  0.36901000  1.0
  O  O1731  1  0.96150000  0.36990000  0.35350000  1.0
  O  O1732  1  0.63460000  0.30280000  0.31700000  1.0
  O  O1733  1  0.71020000  0.29140000  0.29290000  1.0
  O  O1734  1  0.66750000  0.46870000  0.45120000  1.0
  O  O1735  1  0.62430000  0.55620000  0.45520000  1.0
  O  O1736  1  0.41430000  0.58680000  0.29770000  1.0
  O  O1737  1  0.43510000  0.58550000  0.34540000  1.0
  O  O1738  1  0.50920000  0.82180000  0.20855000  1.0
  O  O1739  1  0.57520000  0.81010000  0.17729000  1.0
  O  O1740  1  0.64660000  0.88610000  0.39890000  1.0
  O  O1741  1  0.57130000  0.83930000  0.39380000  1.0
  O  O1742  1  0.90500000  0.76530000  0.44340000  1.0
  O  O1743  1  0.96860000  0.75760000  0.41460000  1.0
  O  O1744  1  0.91680000  0.43020000  0.06100000  1.0
  O  O1745  1  0.84070000  0.41030000  0.08350000  1.0
  O  O1746  1  0.84670000  0.00280000  0.32830000  1.0
  O  O1747  1  0.79420000  0.05290000  0.25640000  1.0
  O  O1748  1  0.84830000  0.18770000  0.27610000  1.0
  O  O1749  1  0.39110000  0.54860000  0.64640000  1.0
  O  O1750  1  0.41010000  0.46560000  0.63170000  1.0
  O  O1751  1  0.11740000  0.60870000  0.66023000  1.0
  O  O1752  1  0.06580000  0.62710000  0.69960000  1.0
  O  O1753  1  0.12900000  0.24350000  0.62900000  1.0
  O  O1754  1  0.20540000  0.28630000  0.61740000  1.0
  O  O1755  1  0.14490000  0.04510000  0.74140000  1.0
  O  O1756  1  0.09990000  0.05940000  0.78440000  1.0
  O  O1757  1  0.88930000  0.35030000  0.77450000  1.0
  O  O1758  1  0.92390000  0.26750000  0.77710000  1.0
  O  O1759  1  0.97740000  0.57020000  0.86901000  1.0
  O  O1760  1  0.03850000  0.63010000  0.85350000  1.0
  O  O1761  1  0.36540000  0.69720000  0.81700000  1.0
  O  O1762  1  0.28980000  0.70860000  0.79290000  1.0
  O  O1763  1  0.33250000  0.53130000  0.95120000  1.0
  O  O1764  1  0.37570000  0.44380000  0.95520000  1.0
  O  O1765  1  0.58570000  0.41320000  0.79770000  1.0
  O  O1766  1  0.56490000  0.41450000  0.84540000  1.0
  O  O1767  1  0.49080000  0.17820000  0.70855000  1.0
  O  O1768  1  0.42480000  0.18990000  0.67729000  1.0
  O  O1769  1  0.35340000  0.11390000  0.89890000  1.0
  O  O1770  1  0.42870000  0.16070000  0.89380000  1.0
  O  O1771  1  0.09500000  0.23470000  0.94340000  1.0
  O  O1772  1  0.03140000  0.24240000  0.91460000  1.0
  O  O1773  1  0.08320000  0.56980000  0.56100000  1.0
  O  O1774  1  0.15930000  0.58970000  0.58350000  1.0
  O  O1775  1  0.15330000  0.99720000  0.82830000  1.0
  O  O1776  1  0.20580000  0.94710000  0.75640000  1.0
  O  O1777  1  0.15170000  0.81230000  0.77610000  1.0
  O  O1778  1  0.04860000  0.10890000  0.39640000  1.0
  O  O1779  1  0.96560000  0.08990000  0.38170000  1.0
  O  O1780  1  0.10870000  0.38260000  0.41023000  1.0
  O  O1781  1  0.12710000  0.43420000  0.44960000  1.0
  O  O1782  1  0.74350000  0.37100000  0.37900000  1.0
  O  O1783  1  0.78630000  0.29460000  0.36740000  1.0
  O  O1784  1  0.54510000  0.35510000  0.49140000  1.0
  O  O1785  1  0.55940000  0.40010000  0.53440000  1.0
  O  O1786  1  0.85030000  0.61070000  0.52450000  1.0
  O  O1787  1  0.76750000  0.57610000  0.52710000  1.0
  O  O1788  1  0.07020000  0.52260000  0.61901000  1.0
  O  O1789  1  0.13010000  0.46150000  0.60350000  1.0
  O  O1790  1  0.19720000  0.13460000  0.56700000  1.0
  O  O1791  1  0.20860000  0.21020000  0.54290000  1.0
  O  O1792  1  0.03130000  0.16750000  0.70120000  1.0
  O  O1793  1  0.94380000  0.12430000  0.70520000  1.0
  O  O1794  1  0.91320000  0.91430000  0.54770000  1.0
  O  O1795  1  0.91450000  0.93510000  0.59540000  1.0
  O  O1796  1  0.67820000  0.00920000  0.45855000  1.0
  O  O1797  1  0.68990000  0.07520000  0.42729000  1.0
  O  O1798  1  0.61390000  0.14660000  0.64890000  1.0
  O  O1799  1  0.66070000  0.07130000  0.64380000  1.0
  O  O1800  1  0.73470000  0.40500000  0.69340000  1.0
  O  O1801  1  0.74240000  0.46860000  0.66460000  1.0
  O  O1802  1  0.06980000  0.41680000  0.31100000  1.0
  O  O1803  1  0.08970000  0.34070000  0.33350000  1.0
  O  O1804  1  0.49720000  0.34670000  0.57830000  1.0
  O  O1805  1  0.44710000  0.29420000  0.50640000  1.0
  O  O1806  1  0.31230000  0.34830000  0.52610000  1.0
  O  O1807  1  0.95140000  0.89110000  0.89640000  1.0
  O  O1808  1  0.03440000  0.91010000  0.88170000  1.0
  O  O1809  1  0.89130000  0.61740000  0.91023000  1.0
  O  O1810  1  0.87290000  0.56580000  0.94960000  1.0
  O  O1811  1  0.25650000  0.62900000  0.87900000  1.0
  O  O1812  1  0.21370000  0.70540000  0.86740000  1.0
  O  O1813  1  0.45490000  0.64490000  0.99140000  1.0
  O  O1814  1  0.44060000  0.59990000  0.03440000  1.0
  O  O1815  1  0.14970000  0.38930000  0.02450000  1.0
  O  O1816  1  0.23250000  0.42390000  0.02710000  1.0
  O  O1817  1  0.92980000  0.47740000  0.11901000  1.0
  O  O1818  1  0.86990000  0.53850000  0.10350000  1.0
  O  O1819  1  0.80280000  0.86540000  0.06700000  1.0
  O  O1820  1  0.79140000  0.78980000  0.04290000  1.0
  O  O1821  1  0.96870000  0.83250000  0.20120000  1.0
  O  O1822  1  0.05620000  0.87570000  0.20520000  1.0
  O  O1823  1  0.08680000  0.08570000  0.04770000  1.0
  O  O1824  1  0.08550000  0.06490000  0.09540000  1.0
  O  O1825  1  0.32180000  0.99080000  0.95855000  1.0
  O  O1826  1  0.31010000  0.92480000  0.92729000  1.0
  O  O1827  1  0.38610000  0.85340000  0.14890000  1.0
  O  O1828  1  0.33930000  0.92870000  0.14380000  1.0
  O  O1829  1  0.26530000  0.59500000  0.19340000  1.0
  O  O1830  1  0.25760000  0.53140000  0.16460000  1.0
  O  O1831  1  0.93020000  0.58320000  0.81100000  1.0
  O  O1832  1  0.91030000  0.65930000  0.83350000  1.0
  O  O1833  1  0.50280000  0.65330000  0.07830000  1.0
  O  O1834  1  0.55290000  0.70580000  0.00640000  1.0
  O  O1835  1  0.68770000  0.65170000  0.02610000  1.0
  O  O1836  1  0.89110000  0.95140000  0.10360000  1.0
  O  O1837  1  0.91010000  0.03440000  0.11830000  1.0
  O  O1838  1  0.61740000  0.89130000  0.08977000  1.0
  O  O1839  1  0.56580000  0.87290000  0.05040000  1.0
  O  O1840  1  0.62900000  0.25650000  0.12100000  1.0
  O  O1841  1  0.70540000  0.21370000  0.13260000  1.0
  O  O1842  1  0.64490000  0.45490000  0.00860000  1.0
  O  O1843  1  0.59990000  0.44060000  0.96560000  1.0
  O  O1844  1  0.38930000  0.14970000  0.97550000  1.0
  O  O1845  1  0.42390000  0.23250000  0.97290000  1.0
  O  O1846  1  0.47740000  0.92980000  0.88099000  1.0
  O  O1847  1  0.53850000  0.86990000  0.89650000  1.0
  O  O1848  1  0.86540000  0.80280000  0.93300000  1.0
  O  O1849  1  0.78980000  0.79140000  0.95710000  1.0
  O  O1850  1  0.83250000  0.96870000  0.79880000  1.0
  O  O1851  1  0.87570000  0.05620000  0.79480000  1.0
  O  O1852  1  0.08570000  0.08680000  0.95230000  1.0
  O  O1853  1  0.06490000  0.08550000  0.90460000  1.0
  O  O1854  1  0.99080000  0.32180000  0.04145000  1.0
  O  O1855  1  0.92480000  0.31010000  0.07271000  1.0
  O  O1856  1  0.85340000  0.38610000  0.85110000  1.0
  O  O1857  1  0.92870000  0.33930000  0.85620000  1.0
  O  O1858  1  0.59500000  0.26530000  0.80660000  1.0
  O  O1859  1  0.53140000  0.25760000  0.83540000  1.0
  O  O1860  1  0.58320000  0.93020000  0.18900000  1.0
  O  O1861  1  0.65930000  0.91030000  0.16650000  1.0
  O  O1862  1  0.65330000  0.50280000  0.92170000  1.0
  O  O1863  1  0.70580000  0.55290000  0.99360000  1.0
  O  O1864  1  0.65170000  0.68770000  0.97390000  1.0
  O  O1865  1  0.10890000  0.04860000  0.60360000  1.0
  O  O1866  1  0.08990000  0.96560000  0.61830000  1.0
  O  O1867  1  0.38260000  0.10870000  0.58977000  1.0
  O  O1868  1  0.43420000  0.12710000  0.55040000  1.0
  O  O1869  1  0.37100000  0.74350000  0.62100000  1.0
  O  O1870  1  0.29460000  0.78630000  0.63260000  1.0
  O  O1871  1  0.35510000  0.54510000  0.50860000  1.0
  O  O1872  1  0.40010000  0.55940000  0.46560000  1.0
  O  O1873  1  0.61070000  0.85030000  0.47550000  1.0
  O  O1874  1  0.57610000  0.76750000  0.47290000  1.0
  O  O1875  1  0.52260000  0.07020000  0.38099000  1.0
  O  O1876  1  0.46150000  0.13010000  0.39650000  1.0
  O  O1877  1  0.13460000  0.19720000  0.43300000  1.0
  O  O1878  1  0.21020000  0.20860000  0.45710000  1.0
  O  O1879  1  0.16750000  0.03130000  0.29880000  1.0
  O  O1880  1  0.12430000  0.94380000  0.29480000  1.0
  O  O1881  1  0.91430000  0.91320000  0.45230000  1.0
  O  O1882  1  0.93510000  0.91450000  0.40460000  1.0
  O  O1883  1  0.00920000  0.67820000  0.54145000  1.0
  O  O1884  1  0.07520000  0.68990000  0.57271000  1.0
  O  O1885  1  0.14660000  0.61390000  0.35110000  1.0
  O  O1886  1  0.07130000  0.66070000  0.35620000  1.0
  O  O1887  1  0.40500000  0.73470000  0.30660000  1.0
  O  O1888  1  0.46860000  0.74240000  0.33540000  1.0
  O  O1889  1  0.41680000  0.06980000  0.68900000  1.0
  O  O1890  1  0.34070000  0.08970000  0.66650000  1.0
  O  O1891  1  0.34670000  0.49720000  0.42170000  1.0
  O  O1892  1  0.29420000  0.44710000  0.49360000  1.0
  O  O1893  1  0.34830000  0.31230000  0.47390000  1.0
  O  O1894  1  0.45140000  0.60890000  0.85360000  1.0
  O  O1895  1  0.53440000  0.58990000  0.86830000  1.0
  O  O1896  1  0.39130000  0.88260000  0.83977000  1.0
  O  O1897  1  0.37290000  0.93420000  0.80040000  1.0
  O  O1898  1  0.75650000  0.87100000  0.87100000  1.0
  O  O1899  1  0.71370000  0.79460000  0.88260000  1.0
  O  O1900  1  0.95490000  0.85510000  0.75860000  1.0
  O  O1901  1  0.94060000  0.90010000  0.71560000  1.0
  O  O1902  1  0.64970000  0.11070000  0.72550000  1.0
  O  O1903  1  0.73250000  0.07610000  0.72290000  1.0
  O  O1904  1  0.42980000  0.02260000  0.63099000  1.0
  O  O1905  1  0.36990000  0.96150000  0.64650000  1.0
  O  O1906  1  0.30280000  0.63460000  0.68300000  1.0
  O  O1907  1  0.29140000  0.71020000  0.70710000  1.0
  O  O1908  1  0.46870000  0.66750000  0.54880000  1.0
  O  O1909  1  0.55620000  0.62430000  0.54480000  1.0
  O  O1910  1  0.58680000  0.41430000  0.70230000  1.0
  O  O1911  1  0.58550000  0.43510000  0.65460000  1.0
  O  O1912  1  0.82180000  0.50920000  0.79145000  1.0
  O  O1913  1  0.81010000  0.57520000  0.82271000  1.0
  O  O1914  1  0.88610000  0.64660000  0.60110000  1.0
  O  O1915  1  0.83930000  0.57130000  0.60620000  1.0
  O  O1916  1  0.76530000  0.90500000  0.55660000  1.0
  O  O1917  1  0.75760000  0.96860000  0.58540000  1.0
  O  O1918  1  0.43020000  0.91680000  0.93900000  1.0
  O  O1919  1  0.41030000  0.84070000  0.91650000  1.0
  O  O1920  1  0.00280000  0.84670000  0.67170000  1.0
  O  O1921  1  0.05290000  0.79420000  0.74360000  1.0
  O  O1922  1  0.18770000  0.84830000  0.72390000  1.0
  O  O1923  1  0.54860000  0.39110000  0.35360000  1.0
  O  O1924  1  0.46560000  0.41010000  0.36830000  1.0
  O  O1925  1  0.60870000  0.11740000  0.33977000  1.0
  O  O1926  1  0.62710000  0.06580000  0.30040000  1.0
  O  O1927  1  0.24350000  0.12900000  0.37100000  1.0
  O  O1928  1  0.28630000  0.20540000  0.38260000  1.0
  O  O1929  1  0.04510000  0.14490000  0.25860000  1.0
  O  O1930  1  0.05940000  0.09990000  0.21560000  1.0
  O  O1931  1  0.35030000  0.88930000  0.22550000  1.0
  O  O1932  1  0.26750000  0.92390000  0.22290000  1.0
  O  O1933  1  0.57020000  0.97740000  0.13099000  1.0
  O  O1934  1  0.63010000  0.03850000  0.14650000  1.0
  O  O1935  1  0.69720000  0.36540000  0.18300000  1.0
  O  O1936  1  0.70860000  0.28980000  0.20710000  1.0
  O  O1937  1  0.53130000  0.33250000  0.04880000  1.0
  O  O1938  1  0.44380000  0.37570000  0.04480000  1.0
  O  O1939  1  0.41320000  0.58570000  0.20230000  1.0
  O  O1940  1  0.41450000  0.56490000  0.15460000  1.0
  O  O1941  1  0.17820000  0.49080000  0.29145000  1.0
  O  O1942  1  0.18990000  0.42480000  0.32271000  1.0
  O  O1943  1  0.11390000  0.35340000  0.10110000  1.0
  O  O1944  1  0.16070000  0.42870000  0.10620000  1.0
  O  O1945  1  0.23470000  0.09500000  0.05660000  1.0
  O  O1946  1  0.24240000  0.03140000  0.08540000  1.0
  O  O1947  1  0.56980000  0.08320000  0.43900000  1.0
  O  O1948  1  0.58970000  0.15930000  0.41650000  1.0
  O  O1949  1  0.99720000  0.15330000  0.17170000  1.0
  O  O1950  1  0.94710000  0.20580000  0.24360000  1.0
  O  O1951  1  0.81230000  0.15170000  0.22390000  1.0
