# generated using pymatgen
data_La14Ag16H216Pt12C122S24N24O55
_symmetry_space_group_name_H-M   'P 1'
_cell_length_a   24.60500000
_cell_length_b   24.60500000
_cell_length_c   46.81400000
_cell_angle_alpha   90.00000000
_cell_angle_beta   90.00000000
_cell_angle_gamma   90.00000000
_symmetry_Int_Tables_number   1
_chemical_formula_structural   La14Ag16H216Pt12C122S24N24O55
_chemical_formula_sum   'La56 Ag64 H864 Pt48 C488 S96 N96 O220'
_cell_volume   28341.47765435
_cell_formula_units_Z   4
loop_
 _symmetry_equiv_pos_site_id
 _symmetry_equiv_pos_as_xyz
  1  'x, y, z'
loop_
 _atom_site_type_symbol
 _atom_site_label
 _atom_site_symmetry_multiplicity
 _atom_site_fract_x
 _atom_site_fract_y
 _atom_site_fract_z
 _atom_site_occupancy
  La  La0  1  0.91892000  0.38170000  0.11279000  1.0
  La  La1  1  0.93444000  0.02731000  0.29350000  1.0
  La  La2  1  0.49310000  0.81820000  0.28732000  1.0
  La  La3  1  0.21480000  0.64370000  0.25495000  1.0
  La  La4  1  0.83380000  0.76840000  0.49624000  1.0
  La  La5  1  0.86370000  0.06060000  0.23880000  1.0
  La  La6  1  0.18730000  0.72330000  0.22320000  1.0
  La  La7  1  0.08108000  0.61830000  0.61279000  1.0
  La  La8  1  0.06556000  0.97269000  0.79350000  1.0
  La  La9  1  0.50690000  0.18180000  0.78732000  1.0
  La  La10  1  0.78520000  0.35630000  0.75495000  1.0
  La  La11  1  0.16620000  0.23160000  0.99624000  1.0
  La  La12  1  0.13630000  0.93940000  0.73880000  1.0
  La  La13  1  0.81270000  0.27670000  0.72320000  1.0
  La  La14  1  0.11830000  0.41892000  0.36279000  1.0
  La  La15  1  0.47269000  0.43444000  0.54350000  1.0
  La  La16  1  0.68180000  0.99310000  0.53732000  1.0
  La  La17  1  0.85630000  0.71480000  0.50495000  1.0
  La  La18  1  0.73160000  0.33380000  0.74624000  1.0
  La  La19  1  0.43940000  0.36370000  0.48880000  1.0
  La  La20  1  0.77670000  0.68730000  0.47320000  1.0
  La  La21  1  0.88170000  0.58108000  0.86279000  1.0
  La  La22  1  0.52731000  0.56556000  0.04350000  1.0
  La  La23  1  0.31820000  0.00690000  0.03732000  1.0
  La  La24  1  0.14370000  0.28520000  0.00495000  1.0
  La  La25  1  0.26840000  0.66620000  0.24624000  1.0
  La  La26  1  0.56060000  0.63630000  0.98880000  1.0
  La  La27  1  0.22330000  0.31270000  0.97320000  1.0
  La  La28  1  0.58108000  0.88170000  0.13721000  1.0
  La  La29  1  0.56556000  0.52731000  0.95650000  1.0
  La  La30  1  0.00690000  0.31820000  0.96268000  1.0
  La  La31  1  0.28520000  0.14370000  0.99505000  1.0
  La  La32  1  0.66620000  0.26840000  0.75376000  1.0
  La  La33  1  0.63630000  0.56060000  0.01120000  1.0
  La  La34  1  0.31270000  0.22330000  0.02680000  1.0
  La  La35  1  0.41892000  0.11830000  0.63721000  1.0
  La  La36  1  0.43444000  0.47269000  0.45650000  1.0
  La  La37  1  0.99310000  0.68180000  0.46268000  1.0
  La  La38  1  0.71480000  0.85630000  0.49505000  1.0
  La  La39  1  0.33380000  0.73160000  0.25376000  1.0
  La  La40  1  0.36370000  0.43940000  0.51120000  1.0
  La  La41  1  0.68730000  0.77670000  0.52680000  1.0
  La  La42  1  0.38170000  0.91892000  0.88721000  1.0
  La  La43  1  0.02731000  0.93444000  0.70650000  1.0
  La  La44  1  0.81820000  0.49310000  0.71268000  1.0
  La  La45  1  0.64370000  0.21480000  0.74505000  1.0
  La  La46  1  0.76840000  0.83380000  0.50376000  1.0
  La  La47  1  0.06060000  0.86370000  0.76120000  1.0
  La  La48  1  0.72330000  0.18730000  0.77680000  1.0
  La  La49  1  0.61830000  0.08108000  0.38721000  1.0
  La  La50  1  0.97269000  0.06556000  0.20650000  1.0
  La  La51  1  0.18180000  0.50690000  0.21268000  1.0
  La  La52  1  0.35630000  0.78520000  0.24505000  1.0
  La  La53  1  0.23160000  0.16620000  0.00376000  1.0
  La  La54  1  0.93940000  0.13630000  0.26120000  1.0
  La  La55  1  0.27670000  0.81270000  0.27680000  1.0
  Ag  Ag56  1  0.71640000  0.65944000  0.22989000  1.0
  Ag  Ag57  1  0.84916000  0.61054000  0.25117000  1.0
  Ag  Ag58  1  0.81057000  0.49992000  0.28892000  1.0
  Ag  Ag59  1  0.67300000  0.55956000  0.27422000  1.0
  Ag  Ag60  1  0.72873000  0.73625000  0.29258000  1.0
  Ag  Ag61  1  0.87396000  0.71170000  0.31269000  1.0
  Ag  Ag62  1  0.79838000  0.59389000  0.34583000  1.0
  Ag  Ag63  1  0.64760000  0.64045000  0.34580000  1.0
  Ag  Ag64  1  0.28360000  0.34056000  0.72989000  1.0
  Ag  Ag65  1  0.15084000  0.38946000  0.75117000  1.0
  Ag  Ag66  1  0.18943000  0.50008000  0.78892000  1.0
  Ag  Ag67  1  0.32700000  0.44044000  0.77422000  1.0
  Ag  Ag68  1  0.27127000  0.26375000  0.79258000  1.0
  Ag  Ag69  1  0.12604000  0.28830000  0.81269000  1.0
  Ag  Ag70  1  0.20162000  0.40611000  0.84583000  1.0
  Ag  Ag71  1  0.35240000  0.35955000  0.84580000  1.0
  Ag  Ag72  1  0.84056000  0.21640000  0.47989000  1.0
  Ag  Ag73  1  0.88946000  0.34916000  0.50117000  1.0
  Ag  Ag74  1  0.00008000  0.31057000  0.53892000  1.0
  Ag  Ag75  1  0.94044000  0.17300000  0.52422000  1.0
  Ag  Ag76  1  0.76375000  0.22873000  0.54258000  1.0
  Ag  Ag77  1  0.78830000  0.37396000  0.56269000  1.0
  Ag  Ag78  1  0.90611000  0.29838000  0.59583000  1.0
  Ag  Ag79  1  0.85955000  0.14760000  0.59580000  1.0
  Ag  Ag80  1  0.15944000  0.78360000  0.97989000  1.0
  Ag  Ag81  1  0.11054000  0.65084000  0.00117000  1.0
  Ag  Ag82  1  0.99992000  0.68943000  0.03892000  1.0
  Ag  Ag83  1  0.05956000  0.82700000  0.02422000  1.0
  Ag  Ag84  1  0.23625000  0.77127000  0.04258000  1.0
  Ag  Ag85  1  0.21170000  0.62604000  0.06269000  1.0
  Ag  Ag86  1  0.09389000  0.70162000  0.09583000  1.0
  Ag  Ag87  1  0.14045000  0.85240000  0.09580000  1.0
  Ag  Ag88  1  0.78360000  0.15944000  0.02011000  1.0
  Ag  Ag89  1  0.65084000  0.11054000  0.99883000  1.0
  Ag  Ag90  1  0.68943000  0.99992000  0.96107000  1.0
  Ag  Ag91  1  0.82700000  0.05956000  0.97578000  1.0
  Ag  Ag92  1  0.77127000  0.23625000  0.95742000  1.0
  Ag  Ag93  1  0.62604000  0.21170000  0.93731000  1.0
  Ag  Ag94  1  0.70162000  0.09389000  0.90417000  1.0
  Ag  Ag95  1  0.85240000  0.14045000  0.90420000  1.0
  Ag  Ag96  1  0.21640000  0.84056000  0.52011000  1.0
  Ag  Ag97  1  0.34916000  0.88946000  0.49882000  1.0
  Ag  Ag98  1  0.31057000  0.00008000  0.46108000  1.0
  Ag  Ag99  1  0.17300000  0.94044000  0.47578000  1.0
  Ag  Ag100  1  0.22873000  0.76375000  0.45742000  1.0
  Ag  Ag101  1  0.37396000  0.78830000  0.43731000  1.0
  Ag  Ag102  1  0.29838000  0.90611000  0.40417000  1.0
  Ag  Ag103  1  0.14760000  0.85955000  0.40420000  1.0
  Ag  Ag104  1  0.65944000  0.71640000  0.77011000  1.0
  Ag  Ag105  1  0.61054000  0.84916000  0.74882000  1.0
  Ag  Ag106  1  0.49992000  0.81057000  0.71107000  1.0
  Ag  Ag107  1  0.55956000  0.67300000  0.72578000  1.0
  Ag  Ag108  1  0.73625000  0.72873000  0.70742000  1.0
  Ag  Ag109  1  0.71170000  0.87396000  0.68731000  1.0
  Ag  Ag110  1  0.59389000  0.79838000  0.65417000  1.0
  Ag  Ag111  1  0.64045000  0.64760000  0.65420000  1.0
  Ag  Ag112  1  0.34056000  0.28360000  0.27011000  1.0
  Ag  Ag113  1  0.38946000  0.15084000  0.24883000  1.0
  Ag  Ag114  1  0.50008000  0.18943000  0.21108000  1.0
  Ag  Ag115  1  0.44044000  0.32700000  0.22578000  1.0
  Ag  Ag116  1  0.26375000  0.27127000  0.20742000  1.0
  Ag  Ag117  1  0.28830000  0.12604000  0.18731000  1.0
  Ag  Ag118  1  0.40611000  0.20162000  0.15417000  1.0
  Ag  Ag119  1  0.35955000  0.35240000  0.15420000  1.0
  H  H120  1  0.72020000  0.48610000  0.15620000  1.0
  H  H121  1  0.68370000  0.45690000  0.17600000  1.0
  H  H122  1  0.78310000  0.40890000  0.18770000  1.0
  H  H123  1  0.81510000  0.44970000  0.17140000  1.0
  H  H124  1  0.82930000  0.82210000  0.18520000  1.0
  H  H125  1  0.87830000  0.78660000  0.18460000  1.0
  H  H126  1  0.90300000  0.84680000  0.23340000  1.0
  H  H127  1  0.84900000  0.87290000  0.23140000  1.0
  H  H128  1  0.04860000  0.59890000  0.31890000  1.0
  H  H129  1  0.04270000  0.57710000  0.28950000  1.0
  H  H130  1  0.01760000  0.49210000  0.32620000  1.0
  H  H131  1  0.99780000  0.51600000  0.35350000  1.0
  H  H132  1  0.67740000  0.37690000  0.35530000  1.0
  H  H133  1  0.63130000  0.39320000  0.33680000  1.0
  H  H134  1  0.62070000  0.45660000  0.38740000  1.0
  H  H135  1  0.67590000  0.44020000  0.39680000  1.0
  H  H136  1  0.47540000  0.69320000  0.28550000  1.0
  H  H137  1  0.47970000  0.64410000  0.26720000  1.0
  H  H138  1  0.51350000  0.72470000  0.23130000  1.0
  H  H139  1  0.52830000  0.76990000  0.25070000  1.0
  H  H140  1  0.70750000  0.79120000  0.41310000  1.0
  H  H141  1  0.71930000  0.83210000  0.39090000  1.0
  H  H142  1  0.81710000  0.80050000  0.40870000  1.0
  H  H143  1  0.81060000  0.74580000  0.42140000  1.0
  H  H144  1  0.67450000  0.56240000  0.15820000  1.0
  H  H145  1  0.58910000  0.51820000  0.23010000  1.0
  H  H146  1  0.62060000  0.47080000  0.21350000  1.0
  H  H147  1  0.56950000  0.49990000  0.19890000  1.0
  H  H148  1  0.62990000  0.63060000  0.18560000  1.0
  H  H149  1  0.59250000  0.61790000  0.21280000  1.0
  H  H150  1  0.57350000  0.59910000  0.18160000  1.0
  H  H151  1  0.84430000  0.40080000  0.22300000  1.0
  H  H152  1  0.87510000  0.52050000  0.18050000  1.0
  H  H153  1  0.93490000  0.49800000  0.18690000  1.0
  H  H154  1  0.91300000  0.55050000  0.20340000  1.0
  H  H155  1  0.90370000  0.44410000  0.25700000  1.0
  H  H156  1  0.93160000  0.50190000  0.25150000  1.0
  H  H157  1  0.95260000  0.44940000  0.23460000  1.0
  H  H158  1  0.77080000  0.75130000  0.17620000  1.0
  H  H159  1  0.89800000  0.63710000  0.18910000  1.0
  H  H160  1  0.91180000  0.69930000  0.19600000  1.0
  H  H161  1  0.90540000  0.67970000  0.16360000  1.0
  H  H162  1  0.81230000  0.60570000  0.17870000  1.0
  H  H163  1  0.80150000  0.64050000  0.15040000  1.0
  H  H164  1  0.75910000  0.64290000  0.17630000  1.0
  H  H165  1  0.90700000  0.84770000  0.27870000  1.0
  H  H166  1  0.74560000  0.86120000  0.28930000  1.0
  H  H167  1  0.76950000  0.86720000  0.25760000  1.0
  H  H168  1  0.78170000  0.91300000  0.28100000  1.0
  H  H169  1  0.01630000  0.67780000  0.30810000  1.0
  H  H170  1  0.96630000  0.62180000  0.23060000  1.0
  H  H171  1  0.99820000  0.58250000  0.25210000  1.0
  H  H172  1  0.02980000  0.63080000  0.23640000  1.0
  H  H173  1  0.96130000  0.74060000  0.27370000  1.0
  H  H174  1  0.93970000  0.71610000  0.24420000  1.0
  H  H175  1  0.00260000  0.73100000  0.24780000  1.0
  H  H176  1  0.94110000  0.44120000  0.31980000  1.0
  H  H177  1  0.92970000  0.52660000  0.38150000  1.0
  H  H178  1  0.91400000  0.46840000  0.39420000  1.0
  H  H179  1  0.86780000  0.51310000  0.38910000  1.0
  H  H180  1  0.81650000  0.44820000  0.35800000  1.0
  H  H181  1  0.86190000  0.40200000  0.36070000  1.0
  H  H182  1  0.84420000  0.42360000  0.32990000  1.0
  H  H183  1  0.73610000  0.37330000  0.31910000  1.0
  H  H184  1  0.61160000  0.43120000  0.29990000  1.0
  H  H185  1  0.61690000  0.38700000  0.27490000  1.0
  H  H186  1  0.62680000  0.45000000  0.26810000  1.0
  H  H187  1  0.76010000  0.39610000  0.26970000  1.0
  H  H188  1  0.71910000  0.42710000  0.24870000  1.0
  H  H189  1  0.70980000  0.36420000  0.25600000  1.0
  H  H190  1  0.62680000  0.54170000  0.40290000  1.0
  H  H191  1  0.75490000  0.49080000  0.40200000  1.0
  H  H192  1  0.75270000  0.52430000  0.43130000  1.0
  H  H193  1  0.78590000  0.54780000  0.40460000  1.0
  H  H194  1  0.66380000  0.62260000  0.40600000  1.0
  H  H195  1  0.72820000  0.63160000  0.40730000  1.0
  H  H196  1  0.69710000  0.60480000  0.43390000  1.0
  H  H197  1  0.50420000  0.64920000  0.32600000  1.0
  H  H198  1  0.55520000  0.51840000  0.27600000  1.0
  H  H199  1  0.52810000  0.56940000  0.26030000  1.0
  H  H200  1  0.49130000  0.52890000  0.27880000  1.0
  H  H201  1  0.56910000  0.51690000  0.32820000  1.0
  H  H202  1  0.50570000  0.52580000  0.33410000  1.0
  H  H203  1  0.54940000  0.56480000  0.34890000  1.0
  H  H204  1  0.59000000  0.72990000  0.20640000  1.0
  H  H205  1  0.65820000  0.83860000  0.26030000  1.0
  H  H206  1  0.59810000  0.81700000  0.26690000  1.0
  H  H207  1  0.60850000  0.85710000  0.24060000  1.0
  H  H208  1  0.71190000  0.79820000  0.22370000  1.0
  H  H209  1  0.67090000  0.81430000  0.19850000  1.0
  H  H210  1  0.68870000  0.75230000  0.20270000  1.0
  H  H211  1  0.63200000  0.76430000  0.39410000  1.0
  H  H212  1  0.66360000  0.83020000  0.31590000  1.0
  H  H213  1  0.70350000  0.84600000  0.34150000  1.0
  H  H214  1  0.64210000  0.86750000  0.34150000  1.0
  H  H215  1  0.59430000  0.76580000  0.32030000  1.0
  H  H216  1  0.56540000  0.79690000  0.34620000  1.0
  H  H217  1  0.58290000  0.73460000  0.34970000  1.0
  H  H218  1  0.88970000  0.77320000  0.38120000  1.0
  H  H219  1  0.85430000  0.61490000  0.40380000  1.0
  H  H220  1  0.82080000  0.66210000  0.41940000  1.0
  H  H221  1  0.88360000  0.65280000  0.42700000  1.0
  H  H222  1  0.94180000  0.69960000  0.36330000  1.0
  H  H223  1  0.93040000  0.63720000  0.37080000  1.0
  H  H224  1  0.95620000  0.67660000  0.39440000  1.0
  H  H225  1  0.81070000  0.46610000  0.03450000  1.0
  H  H226  1  0.86420000  0.44580000  0.01830000  1.0
  H  H227  1  0.86450000  0.50270000  0.03490000  1.0
  H  H228  1  0.27980000  0.51390000  0.65620000  1.0
  H  H229  1  0.31630000  0.54310000  0.67600000  1.0
  H  H230  1  0.21690000  0.59110000  0.68770000  1.0
  H  H231  1  0.18490000  0.55030000  0.67140000  1.0
  H  H232  1  0.17070000  0.17790000  0.68520000  1.0
  H  H233  1  0.12170000  0.21340000  0.68460000  1.0
  H  H234  1  0.09700000  0.15320000  0.73340000  1.0
  H  H235  1  0.15100000  0.12710000  0.73140000  1.0
  H  H236  1  0.95140000  0.40110000  0.81890000  1.0
  H  H237  1  0.95730000  0.42290000  0.78950000  1.0
  H  H238  1  0.98240000  0.50790000  0.82620000  1.0
  H  H239  1  0.00220000  0.48400000  0.85350000  1.0
  H  H240  1  0.32260000  0.62310000  0.85530000  1.0
  H  H241  1  0.36870000  0.60680000  0.83680000  1.0
  H  H242  1  0.37930000  0.54340000  0.88740000  1.0
  H  H243  1  0.32410000  0.55980000  0.89680000  1.0
  H  H244  1  0.52460000  0.30680000  0.78550000  1.0
  H  H245  1  0.52030000  0.35590000  0.76720000  1.0
  H  H246  1  0.48650000  0.27530000  0.73130000  1.0
  H  H247  1  0.47170000  0.23010000  0.75070000  1.0
  H  H248  1  0.29250000  0.20880000  0.91310000  1.0
  H  H249  1  0.28070000  0.16790000  0.89090000  1.0
  H  H250  1  0.18290000  0.19950000  0.90870000  1.0
  H  H251  1  0.18940000  0.25420000  0.92140000  1.0
  H  H252  1  0.32550000  0.43760000  0.65820000  1.0
  H  H253  1  0.41090000  0.48180000  0.73010000  1.0
  H  H254  1  0.37940000  0.52920000  0.71350000  1.0
  H  H255  1  0.43050000  0.50010000  0.69890000  1.0
  H  H256  1  0.37010000  0.36940000  0.68560000  1.0
  H  H257  1  0.40750000  0.38210000  0.71280000  1.0
  H  H258  1  0.42650000  0.40090000  0.68160000  1.0
  H  H259  1  0.15570000  0.59920000  0.72300000  1.0
  H  H260  1  0.12490000  0.47950000  0.68050000  1.0
  H  H261  1  0.06510000  0.50200000  0.68690000  1.0
  H  H262  1  0.08700000  0.44950000  0.70340000  1.0
  H  H263  1  0.09630000  0.55590000  0.75700000  1.0
  H  H264  1  0.06840000  0.49810000  0.75150000  1.0
  H  H265  1  0.04740000  0.55060000  0.73460000  1.0
  H  H266  1  0.22920000  0.24870000  0.67620000  1.0
  H  H267  1  0.10200000  0.36290000  0.68910000  1.0
  H  H268  1  0.08820000  0.30070000  0.69600000  1.0
  H  H269  1  0.09460000  0.32030000  0.66360000  1.0
  H  H270  1  0.18770000  0.39430000  0.67870000  1.0
  H  H271  1  0.19850000  0.35950000  0.65040000  1.0
  H  H272  1  0.24090000  0.35710000  0.67630000  1.0
  H  H273  1  0.09300000  0.15230000  0.77870000  1.0
  H  H274  1  0.25440000  0.13880000  0.78930000  1.0
  H  H275  1  0.23050000  0.13280000  0.75760000  1.0
  H  H276  1  0.21830000  0.08700000  0.78100000  1.0
  H  H277  1  0.98370000  0.32220000  0.80810000  1.0
  H  H278  1  0.03370000  0.37820000  0.73060000  1.0
  H  H279  1  0.00180000  0.41750000  0.75210000  1.0
  H  H280  1  0.97020000  0.36920000  0.73640000  1.0
  H  H281  1  0.03870000  0.25940000  0.77370000  1.0
  H  H282  1  0.06030000  0.28390000  0.74420000  1.0
  H  H283  1  0.99740000  0.26900000  0.74780000  1.0
  H  H284  1  0.05890000  0.55880000  0.81980000  1.0
  H  H285  1  0.07030000  0.47340000  0.88150000  1.0
  H  H286  1  0.08600000  0.53160000  0.89420000  1.0
  H  H287  1  0.13220000  0.48690000  0.88910000  1.0
  H  H288  1  0.18350000  0.55180000  0.85800000  1.0
  H  H289  1  0.13810000  0.59800000  0.86070000  1.0
  H  H290  1  0.15580000  0.57640000  0.82990000  1.0
  H  H291  1  0.26390000  0.62670000  0.81910000  1.0
  H  H292  1  0.38840000  0.56880000  0.79990000  1.0
  H  H293  1  0.38310000  0.61300000  0.77490000  1.0
  H  H294  1  0.37320000  0.55000000  0.76810000  1.0
  H  H295  1  0.23990000  0.60390000  0.76970000  1.0
  H  H296  1  0.28090000  0.57290000  0.74870000  1.0
  H  H297  1  0.29020000  0.63580000  0.75600000  1.0
  H  H298  1  0.37320000  0.45830000  0.90290000  1.0
  H  H299  1  0.24510000  0.50920000  0.90200000  1.0
  H  H300  1  0.24730000  0.47570000  0.93130000  1.0
  H  H301  1  0.21410000  0.45220000  0.90460000  1.0
  H  H302  1  0.33620000  0.37740000  0.90600000  1.0
  H  H303  1  0.27180000  0.36840000  0.90730000  1.0
  H  H304  1  0.30290000  0.39520000  0.93390000  1.0
  H  H305  1  0.49580000  0.35080000  0.82600000  1.0
  H  H306  1  0.44480000  0.48160000  0.77600000  1.0
  H  H307  1  0.47190000  0.43060000  0.76030000  1.0
  H  H308  1  0.50870000  0.47110000  0.77880000  1.0
  H  H309  1  0.43090000  0.48310000  0.82820000  1.0
  H  H310  1  0.49430000  0.47420000  0.83410000  1.0
  H  H311  1  0.45060000  0.43520000  0.84890000  1.0
  H  H312  1  0.41000000  0.27010000  0.70640000  1.0
  H  H313  1  0.34180000  0.16140000  0.76030000  1.0
  H  H314  1  0.40190000  0.18300000  0.76690000  1.0
  H  H315  1  0.39150000  0.14290000  0.74060000  1.0
  H  H316  1  0.28810000  0.20180000  0.72370000  1.0
  H  H317  1  0.32910000  0.18570000  0.69850000  1.0
  H  H318  1  0.31130000  0.24770000  0.70270000  1.0
  H  H319  1  0.36800000  0.23570000  0.89410000  1.0
  H  H320  1  0.33640000  0.16980000  0.81590000  1.0
  H  H321  1  0.29650000  0.15400000  0.84150000  1.0
  H  H322  1  0.35790000  0.13250000  0.84150000  1.0
  H  H323  1  0.40570000  0.23420000  0.82030000  1.0
  H  H324  1  0.43460000  0.20310000  0.84620000  1.0
  H  H325  1  0.41710000  0.26540000  0.84970000  1.0
  H  H326  1  0.11030000  0.22680000  0.88120000  1.0
  H  H327  1  0.14570000  0.38510000  0.90380000  1.0
  H  H328  1  0.17920000  0.33790000  0.91940000  1.0
  H  H329  1  0.11640000  0.34720000  0.92700000  1.0
  H  H330  1  0.05820000  0.30040000  0.86330000  1.0
  H  H331  1  0.06960000  0.36280000  0.87080000  1.0
  H  H332  1  0.04380000  0.32340000  0.89440000  1.0
  H  H333  1  0.18930000  0.53390000  0.53450000  1.0
  H  H334  1  0.13580000  0.55420000  0.51830000  1.0
  H  H335  1  0.13550000  0.49730000  0.53490000  1.0
  H  H336  1  0.01390000  0.22020000  0.40620000  1.0
  H  H337  1  0.04310000  0.18370000  0.42600000  1.0
  H  H338  1  0.09110000  0.28310000  0.43770000  1.0
  H  H339  1  0.05030000  0.31510000  0.42140000  1.0
  H  H340  1  0.67790000  0.32930000  0.43520000  1.0
  H  H341  1  0.71340000  0.37830000  0.43460000  1.0
  H  H342  1  0.65320000  0.40300000  0.48340000  1.0
  H  H343  1  0.62710000  0.34900000  0.48140000  1.0
  H  H344  1  0.90110000  0.54860000  0.56890000  1.0
  H  H345  1  0.92290000  0.54270000  0.53950000  1.0
  H  H346  1  0.00790000  0.51760000  0.57620000  1.0
  H  H347  1  0.98400000  0.49780000  0.60350000  1.0
  H  H348  1  0.12310000  0.17740000  0.60530000  1.0
  H  H349  1  0.10680000  0.13130000  0.58680000  1.0
  H  H350  1  0.04340000  0.12070000  0.63740000  1.0
  H  H351  1  0.05980000  0.17590000  0.64680000  1.0
  H  H352  1  0.80680000  0.97540000  0.53550000  1.0
  H  H353  1  0.85590000  0.97970000  0.51720000  1.0
  H  H354  1  0.77530000  0.01350000  0.48130000  1.0
  H  H355  1  0.73010000  0.02830000  0.50070000  1.0
  H  H356  1  0.70880000  0.20750000  0.66310000  1.0
  H  H357  1  0.66790000  0.21930000  0.64090000  1.0
  H  H358  1  0.69950000  0.31710000  0.65870000  1.0
  H  H359  1  0.75420000  0.31060000  0.67140000  1.0
  H  H360  1  0.93760000  0.17450000  0.40820000  1.0
  H  H361  1  0.98180000  0.08910000  0.48010000  1.0
  H  H362  1  0.02920000  0.12060000  0.46350000  1.0
  H  H363  1  0.00010000  0.06950000  0.44890000  1.0
  H  H364  1  0.86940000  0.12990000  0.43560000  1.0
  H  H365  1  0.88210000  0.09250000  0.46280000  1.0
  H  H366  1  0.90090000  0.07350000  0.43160000  1.0
  H  H367  1  0.09920000  0.34430000  0.47300000  1.0
  H  H368  1  0.97950000  0.37510000  0.43050000  1.0
  H  H369  1  0.00200000  0.43490000  0.43690000  1.0
  H  H370  1  0.94950000  0.41300000  0.45340000  1.0
  H  H371  1  0.05590000  0.40370000  0.50700000  1.0
  H  H372  1  0.99810000  0.43160000  0.50150000  1.0
  H  H373  1  0.05060000  0.45260000  0.48460000  1.0
  H  H374  1  0.74870000  0.27080000  0.42620000  1.0
  H  H375  1  0.86290000  0.39800000  0.43910000  1.0
  H  H376  1  0.80070000  0.41180000  0.44600000  1.0
  H  H377  1  0.82030000  0.40540000  0.41360000  1.0
  H  H378  1  0.89430000  0.31230000  0.42870000  1.0
  H  H379  1  0.85950000  0.30150000  0.40040000  1.0
  H  H380  1  0.85710000  0.25910000  0.42630000  1.0
  H  H381  1  0.65230000  0.40700000  0.52870000  1.0
  H  H382  1  0.63880000  0.24560000  0.53930000  1.0
  H  H383  1  0.63280000  0.26950000  0.50760000  1.0
  H  H384  1  0.58700000  0.28170000  0.53100000  1.0
  H  H385  1  0.82220000  0.51630000  0.55810000  1.0
  H  H386  1  0.87820000  0.46630000  0.48060000  1.0
  H  H387  1  0.91750000  0.49820000  0.50210000  1.0
  H  H388  1  0.86920000  0.52980000  0.48640000  1.0
  H  H389  1  0.75940000  0.46130000  0.52370000  1.0
  H  H390  1  0.78390000  0.43970000  0.49420000  1.0
  H  H391  1  0.76900000  0.50260000  0.49780000  1.0
  H  H392  1  0.05880000  0.44110000  0.56980000  1.0
  H  H393  1  0.97340000  0.42970000  0.63150000  1.0
  H  H394  1  0.03160000  0.41400000  0.64420000  1.0
  H  H395  1  0.98690000  0.36780000  0.63910000  1.0
  H  H396  1  0.05180000  0.31650000  0.60800000  1.0
  H  H397  1  0.09800000  0.36190000  0.61070000  1.0
  H  H398  1  0.07640000  0.34420000  0.57990000  1.0
  H  H399  1  0.12670000  0.23610000  0.56910000  1.0
  H  H400  1  0.06880000  0.11160000  0.54990000  1.0
  H  H401  1  0.11300000  0.11690000  0.52490000  1.0
  H  H402  1  0.05000000  0.12680000  0.51810000  1.0
  H  H403  1  0.10390000  0.26010000  0.51970000  1.0
  H  H404  1  0.07290000  0.21910000  0.49870000  1.0
  H  H405  1  0.13580000  0.20980000  0.50600000  1.0
  H  H406  1  0.95830000  0.12680000  0.65290000  1.0
  H  H407  1  0.00920000  0.25490000  0.65200000  1.0
  H  H408  1  0.97570000  0.25270000  0.68130000  1.0
  H  H409  1  0.95220000  0.28590000  0.65460000  1.0
  H  H410  1  0.87740000  0.16380000  0.65600000  1.0
  H  H411  1  0.86840000  0.22820000  0.65730000  1.0
  H  H412  1  0.89520000  0.19710000  0.68390000  1.0
  H  H413  1  0.85080000  0.00420000  0.57600000  1.0
  H  H414  1  0.98160000  0.05520000  0.52600000  1.0
  H  H415  1  0.93060000  0.02810000  0.51030000  1.0
  H  H416  1  0.97110000  0.99130000  0.52880000  1.0
  H  H417  1  0.98310000  0.06910000  0.57820000  1.0
  H  H418  1  0.97420000  0.00570000  0.58410000  1.0
  H  H419  1  0.93520000  0.04940000  0.59890000  1.0
  H  H420  1  0.77010000  0.09000000  0.45640000  1.0
  H  H421  1  0.66140000  0.15820000  0.51030000  1.0
  H  H422  1  0.68300000  0.09810000  0.51690000  1.0
  H  H423  1  0.64290000  0.10850000  0.49060000  1.0
  H  H424  1  0.70180000  0.21190000  0.47370000  1.0
  H  H425  1  0.68570000  0.17090000  0.44850000  1.0
  H  H426  1  0.74770000  0.18870000  0.45270000  1.0
  H  H427  1  0.73570000  0.13200000  0.64410000  1.0
  H  H428  1  0.66980000  0.16360000  0.56590000  1.0
  H  H429  1  0.65400000  0.20350000  0.59150000  1.0
  H  H430  1  0.63250000  0.14210000  0.59150000  1.0
  H  H431  1  0.73420000  0.09430000  0.57030000  1.0
  H  H432  1  0.70310000  0.06540000  0.59620000  1.0
  H  H433  1  0.76540000  0.08290000  0.59970000  1.0
  H  H434  1  0.72680000  0.38970000  0.63120000  1.0
  H  H435  1  0.88510000  0.35430000  0.65380000  1.0
  H  H436  1  0.83790000  0.32080000  0.66940000  1.0
  H  H437  1  0.84720000  0.38360000  0.67700000  1.0
  H  H438  1  0.80040000  0.44180000  0.61330000  1.0
  H  H439  1  0.86280000  0.43040000  0.62080000  1.0
  H  H440  1  0.82340000  0.45620000  0.64440000  1.0
  H  H441  1  0.03390000  0.31070000  0.28450000  1.0
  H  H442  1  0.05420000  0.36420000  0.26830000  1.0
  H  H443  1  0.99730000  0.36450000  0.28490000  1.0
  H  H444  1  0.98610000  0.77980000  0.90620000  1.0
  H  H445  1  0.95690000  0.81630000  0.92600000  1.0
  H  H446  1  0.90890000  0.71690000  0.93770000  1.0
  H  H447  1  0.94970000  0.68490000  0.92140000  1.0
  H  H448  1  0.32210000  0.67070000  0.93520000  1.0
  H  H449  1  0.28660000  0.62170000  0.93460000  1.0
  H  H450  1  0.34680000  0.59700000  0.98340000  1.0
  H  H451  1  0.37290000  0.65100000  0.98140000  1.0
  H  H452  1  0.09890000  0.45140000  0.06890000  1.0
  H  H453  1  0.07710000  0.45730000  0.03950000  1.0
  H  H454  1  0.99210000  0.48240000  0.07620000  1.0
  H  H455  1  0.01600000  0.50220000  0.10350000  1.0
  H  H456  1  0.87690000  0.82260000  0.10530000  1.0
  H  H457  1  0.89320000  0.86870000  0.08680000  1.0
  H  H458  1  0.95660000  0.87930000  0.13740000  1.0
  H  H459  1  0.94020000  0.82410000  0.14680000  1.0
  H  H460  1  0.19320000  0.02460000  0.03550000  1.0
  H  H461  1  0.14410000  0.02030000  0.01720000  1.0
  H  H462  1  0.22470000  0.98650000  0.98130000  1.0
  H  H463  1  0.26990000  0.97170000  0.00070000  1.0
  H  H464  1  0.29120000  0.79250000  0.16310000  1.0
  H  H465  1  0.33210000  0.78070000  0.14090000  1.0
  H  H466  1  0.30050000  0.68290000  0.15870000  1.0
  H  H467  1  0.24580000  0.68940000  0.17140000  1.0
  H  H468  1  0.06240000  0.82550000  0.90820000  1.0
  H  H469  1  0.01820000  0.91090000  0.98010000  1.0
  H  H470  1  0.97080000  0.87940000  0.96350000  1.0
  H  H471  1  0.99990000  0.93050000  0.94890000  1.0
  H  H472  1  0.13060000  0.87010000  0.93560000  1.0
  H  H473  1  0.11790000  0.90750000  0.96280000  1.0
  H  H474  1  0.09910000  0.92650000  0.93160000  1.0
  H  H475  1  0.90080000  0.65570000  0.97300000  1.0
  H  H476  1  0.02050000  0.62490000  0.93050000  1.0
  H  H477  1  0.99800000  0.56510000  0.93690000  1.0
  H  H478  1  0.05050000  0.58700000  0.95340000  1.0
  H  H479  1  0.94410000  0.59630000  0.00700000  1.0
  H  H480  1  0.00190000  0.56840000  0.00150000  1.0
  H  H481  1  0.94940000  0.54740000  0.98460000  1.0
  H  H482  1  0.25130000  0.72920000  0.92620000  1.0
  H  H483  1  0.13710000  0.60200000  0.93910000  1.0
  H  H484  1  0.19930000  0.58820000  0.94600000  1.0
  H  H485  1  0.17970000  0.59460000  0.91360000  1.0
  H  H486  1  0.10570000  0.68770000  0.92870000  1.0
  H  H487  1  0.14050000  0.69850000  0.90040000  1.0
  H  H488  1  0.14290000  0.74090000  0.92630000  1.0
  H  H489  1  0.34770000  0.59300000  0.02870000  1.0
  H  H490  1  0.36120000  0.75440000  0.03930000  1.0
  H  H491  1  0.36720000  0.73050000  0.00760000  1.0
  H  H492  1  0.41300000  0.71830000  0.03100000  1.0
  H  H493  1  0.17780000  0.48370000  0.05810000  1.0
  H  H494  1  0.12180000  0.53370000  0.98060000  1.0
  H  H495  1  0.08250000  0.50180000  0.00210000  1.0
  H  H496  1  0.13080000  0.47020000  0.98640000  1.0
  H  H497  1  0.24060000  0.53870000  0.02370000  1.0
  H  H498  1  0.21610000  0.56030000  0.99420000  1.0
  H  H499  1  0.23100000  0.49740000  0.99780000  1.0
  H  H500  1  0.94120000  0.55890000  0.06980000  1.0
  H  H501  1  0.02660000  0.57030000  0.13150000  1.0
  H  H502  1  0.96840000  0.58600000  0.14420000  1.0
  H  H503  1  0.01310000  0.63220000  0.13910000  1.0
  H  H504  1  0.94820000  0.68350000  0.10800000  1.0
  H  H505  1  0.90200000  0.63810000  0.11070000  1.0
  H  H506  1  0.92360000  0.65580000  0.07990000  1.0
  H  H507  1  0.87330000  0.76390000  0.06910000  1.0
  H  H508  1  0.93120000  0.88840000  0.04990000  1.0
  H  H509  1  0.88700000  0.88310000  0.02490000  1.0
  H  H510  1  0.95000000  0.87320000  0.01810000  1.0
  H  H511  1  0.89610000  0.73990000  0.01970000  1.0
  H  H512  1  0.92710000  0.78090000  0.99870000  1.0
  H  H513  1  0.86420000  0.79020000  0.00600000  1.0
  H  H514  1  0.04170000  0.87320000  0.15290000  1.0
  H  H515  1  0.99080000  0.74510000  0.15200000  1.0
  H  H516  1  0.02430000  0.74730000  0.18130000  1.0
  H  H517  1  0.04780000  0.71410000  0.15460000  1.0
  H  H518  1  0.12260000  0.83620000  0.15600000  1.0
  H  H519  1  0.13160000  0.77180000  0.15730000  1.0
  H  H520  1  0.10480000  0.80290000  0.18390000  1.0
  H  H521  1  0.14920000  0.99580000  0.07600000  1.0
  H  H522  1  0.01840000  0.94480000  0.02600000  1.0
  H  H523  1  0.06940000  0.97190000  0.01030000  1.0
  H  H524  1  0.02890000  0.00870000  0.02880000  1.0
  H  H525  1  0.01690000  0.93090000  0.07820000  1.0
  H  H526  1  0.02580000  0.99430000  0.08410000  1.0
  H  H527  1  0.06480000  0.95060000  0.09890000  1.0
  H  H528  1  0.22990000  0.91000000  0.95640000  1.0
  H  H529  1  0.33860000  0.84180000  0.01030000  1.0
  H  H530  1  0.31700000  0.90190000  0.01690000  1.0
  H  H531  1  0.35710000  0.89150000  0.99060000  1.0
  H  H532  1  0.29820000  0.78810000  0.97370000  1.0
  H  H533  1  0.31430000  0.82910000  0.94850000  1.0
  H  H534  1  0.25230000  0.81130000  0.95270000  1.0
  H  H535  1  0.26430000  0.86800000  0.14410000  1.0
  H  H536  1  0.33020000  0.83640000  0.06590000  1.0
  H  H537  1  0.34600000  0.79650000  0.09150000  1.0
  H  H538  1  0.36750000  0.85790000  0.09150000  1.0
  H  H539  1  0.26580000  0.90570000  0.07030000  1.0
  H  H540  1  0.29690000  0.93460000  0.09620000  1.0
  H  H541  1  0.23460000  0.91710000  0.09970000  1.0
  H  H542  1  0.27320000  0.61030000  0.13120000  1.0
  H  H543  1  0.11490000  0.64570000  0.15380000  1.0
  H  H544  1  0.16210000  0.67920000  0.16940000  1.0
  H  H545  1  0.15280000  0.61640000  0.17700000  1.0
  H  H546  1  0.19960000  0.55820000  0.11330000  1.0
  H  H547  1  0.13720000  0.56960000  0.12080000  1.0
  H  H548  1  0.17660000  0.54380000  0.14440000  1.0
  H  H549  1  0.96610000  0.68930000  0.78450000  1.0
  H  H550  1  0.94580000  0.63580000  0.76830000  1.0
  H  H551  1  0.00270000  0.63550000  0.78490000  1.0
  H  H552  1  0.77980000  0.98610000  0.09380000  1.0
  H  H553  1  0.81630000  0.95690000  0.07400000  1.0
  H  H554  1  0.71690000  0.90890000  0.06230000  1.0
  H  H555  1  0.68490000  0.94970000  0.07860000  1.0
  H  H556  1  0.67070000  0.32210000  0.06480000  1.0
  H  H557  1  0.62170000  0.28660000  0.06540000  1.0
  H  H558  1  0.59700000  0.34680000  0.01660000  1.0
  H  H559  1  0.65100000  0.37290000  0.01860000  1.0
  H  H560  1  0.45140000  0.09890000  0.93110000  1.0
  H  H561  1  0.45730000  0.07710000  0.96050000  1.0
  H  H562  1  0.48240000  0.99210000  0.92380000  1.0
  H  H563  1  0.50220000  0.01600000  0.89650000  1.0
  H  H564  1  0.82260000  0.87690000  0.89470000  1.0
  H  H565  1  0.86870000  0.89320000  0.91320000  1.0
  H  H566  1  0.87930000  0.95660000  0.86260000  1.0
  H  H567  1  0.82410000  0.94020000  0.85320000  1.0
  H  H568  1  0.02460000  0.19320000  0.96450000  1.0
  H  H569  1  0.02030000  0.14410000  0.98280000  1.0
  H  H570  1  0.98650000  0.22470000  0.01870000  1.0
  H  H571  1  0.97170000  0.26990000  0.99930000  1.0
  H  H572  1  0.79250000  0.29120000  0.83690000  1.0
  H  H573  1  0.78070000  0.33210000  0.85910000  1.0
  H  H574  1  0.68290000  0.30050000  0.84130000  1.0
  H  H575  1  0.68940000  0.24580000  0.82860000  1.0
  H  H576  1  0.82550000  0.06240000  0.09180000  1.0
  H  H577  1  0.91090000  0.01820000  0.01990000  1.0
  H  H578  1  0.87940000  0.97080000  0.03650000  1.0
  H  H579  1  0.93050000  0.99990000  0.05110000  1.0
  H  H580  1  0.87010000  0.13060000  0.06440000  1.0
  H  H581  1  0.90750000  0.11790000  0.03720000  1.0
  H  H582  1  0.92650000  0.09910000  0.06840000  1.0
  H  H583  1  0.65570000  0.90080000  0.02700000  1.0
  H  H584  1  0.62490000  0.02050000  0.06950000  1.0
  H  H585  1  0.56510000  0.99800000  0.06310000  1.0
  H  H586  1  0.58700000  0.05050000  0.04660000  1.0
  H  H587  1  0.59630000  0.94410000  0.99300000  1.0
  H  H588  1  0.56840000  0.00190000  0.99850000  1.0
  H  H589  1  0.54740000  0.94940000  0.01540000  1.0
  H  H590  1  0.72920000  0.25130000  0.07380000  1.0
  H  H591  1  0.60200000  0.13710000  0.06090000  1.0
  H  H592  1  0.58820000  0.19930000  0.05400000  1.0
  H  H593  1  0.59460000  0.17970000  0.08640000  1.0
  H  H594  1  0.68770000  0.10570000  0.07130000  1.0
  H  H595  1  0.69850000  0.14050000  0.09960000  1.0
  H  H596  1  0.74090000  0.14290000  0.07370000  1.0
  H  H597  1  0.59300000  0.34770000  0.97130000  1.0
  H  H598  1  0.75440000  0.36120000  0.96070000  1.0
  H  H599  1  0.73050000  0.36720000  0.99240000  1.0
  H  H600  1  0.71830000  0.41300000  0.96900000  1.0
  H  H601  1  0.48370000  0.17780000  0.94190000  1.0
  H  H602  1  0.53370000  0.12180000  0.01940000  1.0
  H  H603  1  0.50180000  0.08250000  0.99790000  1.0
  H  H604  1  0.47020000  0.13080000  0.01360000  1.0
  H  H605  1  0.53870000  0.24060000  0.97630000  1.0
  H  H606  1  0.56030000  0.21610000  0.00580000  1.0
  H  H607  1  0.49740000  0.23100000  0.00220000  1.0
  H  H608  1  0.55890000  0.94120000  0.93020000  1.0
  H  H609  1  0.57030000  0.02660000  0.86850000  1.0
  H  H610  1  0.58600000  0.96840000  0.85580000  1.0
  H  H611  1  0.63220000  0.01310000  0.86090000  1.0
  H  H612  1  0.68350000  0.94820000  0.89200000  1.0
  H  H613  1  0.63810000  0.90200000  0.88930000  1.0
  H  H614  1  0.65580000  0.92360000  0.92010000  1.0
  H  H615  1  0.76390000  0.87330000  0.93090000  1.0
  H  H616  1  0.88840000  0.93120000  0.95010000  1.0
  H  H617  1  0.88310000  0.88700000  0.97510000  1.0
  H  H618  1  0.87320000  0.95000000  0.98190000  1.0
  H  H619  1  0.73990000  0.89610000  0.98030000  1.0
  H  H620  1  0.78090000  0.92710000  0.00130000  1.0
  H  H621  1  0.79020000  0.86420000  0.99400000  1.0
  H  H622  1  0.87320000  0.04170000  0.84710000  1.0
  H  H623  1  0.74510000  0.99080000  0.84800000  1.0
  H  H624  1  0.74730000  0.02430000  0.81870000  1.0
  H  H625  1  0.71410000  0.04780000  0.84540000  1.0
  H  H626  1  0.83620000  0.12260000  0.84400000  1.0
  H  H627  1  0.77180000  0.13160000  0.84270000  1.0
  H  H628  1  0.80290000  0.10480000  0.81610000  1.0
  H  H629  1  0.99580000  0.14920000  0.92400000  1.0
  H  H630  1  0.94480000  0.01840000  0.97400000  1.0
  H  H631  1  0.97190000  0.06940000  0.98970000  1.0
  H  H632  1  0.00870000  0.02890000  0.97120000  1.0
  H  H633  1  0.93090000  0.01690000  0.92180000  1.0
  H  H634  1  0.99430000  0.02580000  0.91590000  1.0
  H  H635  1  0.95060000  0.06480000  0.90110000  1.0
  H  H636  1  0.91000000  0.22990000  0.04360000  1.0
  H  H637  1  0.84180000  0.33860000  0.98970000  1.0
  H  H638  1  0.90190000  0.31700000  0.98310000  1.0
  H  H639  1  0.89150000  0.35710000  0.00940000  1.0
  H  H640  1  0.78810000  0.29820000  0.02630000  1.0
  H  H641  1  0.82910000  0.31430000  0.05150000  1.0
  H  H642  1  0.81130000  0.25230000  0.04730000  1.0
  H  H643  1  0.86800000  0.26430000  0.85590000  1.0
  H  H644  1  0.83640000  0.33020000  0.93410000  1.0
  H  H645  1  0.79650000  0.34600000  0.90850000  1.0
  H  H646  1  0.85790000  0.36750000  0.90850000  1.0
  H  H647  1  0.90570000  0.26580000  0.92970000  1.0
  H  H648  1  0.93460000  0.29690000  0.90380000  1.0
  H  H649  1  0.91710000  0.23460000  0.90030000  1.0
  H  H650  1  0.61030000  0.27320000  0.86880000  1.0
  H  H651  1  0.64570000  0.11490000  0.84620000  1.0
  H  H652  1  0.67920000  0.16210000  0.83060000  1.0
  H  H653  1  0.61640000  0.15280000  0.82300000  1.0
  H  H654  1  0.55820000  0.19960000  0.88670000  1.0
  H  H655  1  0.56960000  0.13720000  0.87920000  1.0
  H  H656  1  0.54380000  0.17660000  0.85560000  1.0
  H  H657  1  0.68930000  0.96610000  0.21550000  1.0
  H  H658  1  0.63580000  0.94580000  0.23170000  1.0
  H  H659  1  0.63550000  0.00270000  0.21510000  1.0
  H  H660  1  0.22020000  0.01390000  0.59380000  1.0
  H  H661  1  0.18370000  0.04310000  0.57400000  1.0
  H  H662  1  0.28310000  0.09110000  0.56230000  1.0
  H  H663  1  0.31510000  0.05030000  0.57860000  1.0
  H  H664  1  0.32930000  0.67790000  0.56480000  1.0
  H  H665  1  0.37830000  0.71340000  0.56540000  1.0
  H  H666  1  0.40300000  0.65320000  0.51660000  1.0
  H  H667  1  0.34900000  0.62710000  0.51860000  1.0
  H  H668  1  0.54860000  0.90110000  0.43110000  1.0
  H  H669  1  0.54270000  0.92290000  0.46050000  1.0
  H  H670  1  0.51760000  0.00790000  0.42380000  1.0
  H  H671  1  0.49780000  0.98400000  0.39650000  1.0
  H  H672  1  0.17740000  0.12310000  0.39470000  1.0
  H  H673  1  0.13130000  0.10680000  0.41320000  1.0
  H  H674  1  0.12070000  0.04340000  0.36260000  1.0
  H  H675  1  0.17590000  0.05980000  0.35320000  1.0
  H  H676  1  0.97540000  0.80680000  0.46450000  1.0
  H  H677  1  0.97970000  0.85590000  0.48280000  1.0
  H  H678  1  0.01350000  0.77530000  0.51870000  1.0
  H  H679  1  0.02830000  0.73010000  0.49930000  1.0
  H  H680  1  0.20750000  0.70880000  0.33690000  1.0
  H  H681  1  0.21930000  0.66790000  0.35910000  1.0
  H  H682  1  0.31710000  0.69950000  0.34130000  1.0
  H  H683  1  0.31060000  0.75420000  0.32860000  1.0
  H  H684  1  0.17450000  0.93760000  0.59180000  1.0
  H  H685  1  0.08910000  0.98180000  0.51990000  1.0
  H  H686  1  0.12060000  0.02920000  0.53650000  1.0
  H  H687  1  0.06950000  0.00010000  0.55110000  1.0
  H  H688  1  0.12990000  0.86940000  0.56440000  1.0
  H  H689  1  0.09250000  0.88210000  0.53720000  1.0
  H  H690  1  0.07350000  0.90090000  0.56840000  1.0
  H  H691  1  0.34430000  0.09920000  0.52700000  1.0
  H  H692  1  0.37510000  0.97950000  0.56950000  1.0
  H  H693  1  0.43490000  0.00200000  0.56310000  1.0
  H  H694  1  0.41300000  0.94950000  0.54660000  1.0
  H  H695  1  0.40370000  0.05590000  0.49300000  1.0
  H  H696  1  0.43160000  0.99810000  0.49850000  1.0
  H  H697  1  0.45260000  0.05060000  0.51540000  1.0
  H  H698  1  0.27080000  0.74870000  0.57380000  1.0
  H  H699  1  0.39800000  0.86290000  0.56090000  1.0
  H  H700  1  0.41180000  0.80070000  0.55400000  1.0
  H  H701  1  0.40540000  0.82030000  0.58640000  1.0
  H  H702  1  0.31230000  0.89430000  0.57130000  1.0
  H  H703  1  0.30150000  0.85950000  0.59960000  1.0
  H  H704  1  0.25910000  0.85710000  0.57370000  1.0
  H  H705  1  0.40700000  0.65230000  0.47130000  1.0
  H  H706  1  0.24560000  0.63880000  0.46070000  1.0
  H  H707  1  0.26950000  0.63280000  0.49240000  1.0
  H  H708  1  0.28170000  0.58700000  0.46900000  1.0
  H  H709  1  0.51630000  0.82220000  0.44190000  1.0
  H  H710  1  0.46630000  0.87820000  0.51940000  1.0
  H  H711  1  0.49820000  0.91750000  0.49790000  1.0
  H  H712  1  0.52980000  0.86920000  0.51360000  1.0
  H  H713  1  0.46130000  0.75940000  0.47630000  1.0
  H  H714  1  0.43970000  0.78390000  0.50580000  1.0
  H  H715  1  0.50260000  0.76900000  0.50220000  1.0
  H  H716  1  0.44110000  0.05880000  0.43020000  1.0
  H  H717  1  0.42970000  0.97340000  0.36850000  1.0
  H  H718  1  0.41400000  0.03160000  0.35580000  1.0
  H  H719  1  0.36780000  0.98690000  0.36090000  1.0
  H  H720  1  0.31650000  0.05180000  0.39200000  1.0
  H  H721  1  0.36190000  0.09800000  0.38930000  1.0
  H  H722  1  0.34420000  0.07640000  0.42010000  1.0
  H  H723  1  0.23610000  0.12670000  0.43090000  1.0
  H  H724  1  0.11160000  0.06880000  0.45010000  1.0
  H  H725  1  0.11690000  0.11300000  0.47510000  1.0
  H  H726  1  0.12680000  0.05000000  0.48190000  1.0
  H  H727  1  0.26010000  0.10390000  0.48030000  1.0
  H  H728  1  0.21910000  0.07290000  0.50130000  1.0
  H  H729  1  0.20980000  0.13580000  0.49400000  1.0
  H  H730  1  0.12680000  0.95830000  0.34710000  1.0
  H  H731  1  0.25490000  0.00920000  0.34800000  1.0
  H  H732  1  0.25270000  0.97570000  0.31870000  1.0
  H  H733  1  0.28590000  0.95220000  0.34540000  1.0
  H  H734  1  0.16380000  0.87740000  0.34400000  1.0
  H  H735  1  0.22820000  0.86840000  0.34270000  1.0
  H  H736  1  0.19710000  0.89520000  0.31610000  1.0
  H  H737  1  0.00420000  0.85080000  0.42400000  1.0
  H  H738  1  0.05520000  0.98160000  0.47400000  1.0
  H  H739  1  0.02810000  0.93060000  0.48970000  1.0
  H  H740  1  0.99130000  0.97110000  0.47120000  1.0
  H  H741  1  0.06910000  0.98310000  0.42180000  1.0
  H  H742  1  0.00570000  0.97420000  0.41590000  1.0
  H  H743  1  0.04940000  0.93520000  0.40110000  1.0
  H  H744  1  0.09000000  0.77010000  0.54360000  1.0
  H  H745  1  0.15820000  0.66140000  0.48970000  1.0
  H  H746  1  0.09810000  0.68300000  0.48310000  1.0
  H  H747  1  0.10850000  0.64290000  0.50940000  1.0
  H  H748  1  0.21190000  0.70180000  0.52630000  1.0
  H  H749  1  0.17090000  0.68570000  0.55150000  1.0
  H  H750  1  0.18870000  0.74770000  0.54730000  1.0
  H  H751  1  0.13200000  0.73570000  0.35590000  1.0
  H  H752  1  0.16360000  0.66980000  0.43410000  1.0
  H  H753  1  0.20350000  0.65400000  0.40850000  1.0
  H  H754  1  0.14210000  0.63250000  0.40850000  1.0
  H  H755  1  0.09430000  0.73420000  0.42970000  1.0
  H  H756  1  0.06540000  0.70310000  0.40380000  1.0
  H  H757  1  0.08290000  0.76540000  0.40030000  1.0
  H  H758  1  0.38970000  0.72680000  0.36880000  1.0
  H  H759  1  0.35430000  0.88510000  0.34620000  1.0
  H  H760  1  0.32080000  0.83790000  0.33060000  1.0
  H  H761  1  0.38360000  0.84720000  0.32300000  1.0
  H  H762  1  0.44180000  0.80040000  0.38670000  1.0
  H  H763  1  0.43040000  0.86280000  0.37920000  1.0
  H  H764  1  0.45620000  0.82340000  0.35560000  1.0
  H  H765  1  0.31070000  0.03390000  0.71550000  1.0
  H  H766  1  0.36420000  0.05420000  0.73170000  1.0
  H  H767  1  0.36450000  0.99730000  0.71510000  1.0
  H  H768  1  0.48610000  0.72020000  0.84380000  1.0
  H  H769  1  0.45690000  0.68370000  0.82400000  1.0
  H  H770  1  0.40890000  0.78310000  0.81230000  1.0
  H  H771  1  0.44970000  0.81510000  0.82860000  1.0
  H  H772  1  0.82210000  0.82930000  0.81480000  1.0
  H  H773  1  0.78660000  0.87830000  0.81540000  1.0
  H  H774  1  0.84680000  0.90300000  0.76660000  1.0
  H  H775  1  0.87290000  0.84900000  0.76860000  1.0
  H  H776  1  0.59890000  0.04860000  0.68110000  1.0
  H  H777  1  0.57710000  0.04270000  0.71050000  1.0
  H  H778  1  0.49210000  0.01760000  0.67380000  1.0
  H  H779  1  0.51600000  0.99780000  0.64650000  1.0
  H  H780  1  0.37690000  0.67740000  0.64470000  1.0
  H  H781  1  0.39320000  0.63130000  0.66320000  1.0
  H  H782  1  0.45660000  0.62070000  0.61260000  1.0
  H  H783  1  0.44020000  0.67590000  0.60320000  1.0
  H  H784  1  0.69320000  0.47540000  0.71450000  1.0
  H  H785  1  0.64410000  0.47970000  0.73280000  1.0
  H  H786  1  0.72470000  0.51350000  0.76870000  1.0
  H  H787  1  0.76990000  0.52830000  0.74930000  1.0
  H  H788  1  0.79120000  0.70750000  0.58690000  1.0
  H  H789  1  0.83210000  0.71930000  0.60910000  1.0
  H  H790  1  0.80050000  0.81710000  0.59130000  1.0
  H  H791  1  0.74580000  0.81060000  0.57860000  1.0
  H  H792  1  0.56240000  0.67450000  0.84180000  1.0
  H  H793  1  0.51820000  0.58910000  0.76990000  1.0
  H  H794  1  0.47080000  0.62060000  0.78650000  1.0
  H  H795  1  0.49990000  0.56950000  0.80110000  1.0
  H  H796  1  0.63060000  0.62990000  0.81440000  1.0
  H  H797  1  0.61790000  0.59250000  0.78720000  1.0
  H  H798  1  0.59910000  0.57350000  0.81840000  1.0
  H  H799  1  0.40080000  0.84430000  0.77700000  1.0
  H  H800  1  0.52050000  0.87510000  0.81950000  1.0
  H  H801  1  0.49800000  0.93490000  0.81310000  1.0
  H  H802  1  0.55050000  0.91300000  0.79660000  1.0
  H  H803  1  0.44410000  0.90370000  0.74300000  1.0
  H  H804  1  0.50190000  0.93160000  0.74850000  1.0
  H  H805  1  0.44940000  0.95260000  0.76540000  1.0
  H  H806  1  0.75130000  0.77080000  0.82380000  1.0
  H  H807  1  0.63710000  0.89800000  0.81090000  1.0
  H  H808  1  0.69930000  0.91180000  0.80400000  1.0
  H  H809  1  0.67970000  0.90540000  0.83640000  1.0
  H  H810  1  0.60570000  0.81230000  0.82130000  1.0
  H  H811  1  0.64050000  0.80150000  0.84960000  1.0
  H  H812  1  0.64290000  0.75910000  0.82370000  1.0
  H  H813  1  0.84770000  0.90700000  0.72130000  1.0
  H  H814  1  0.86120000  0.74560000  0.71070000  1.0
  H  H815  1  0.86720000  0.76950000  0.74240000  1.0
  H  H816  1  0.91300000  0.78170000  0.71900000  1.0
  H  H817  1  0.67780000  0.01630000  0.69190000  1.0
  H  H818  1  0.62180000  0.96630000  0.76940000  1.0
  H  H819  1  0.58250000  0.99820000  0.74790000  1.0
  H  H820  1  0.63080000  0.02980000  0.76360000  1.0
  H  H821  1  0.74060000  0.96130000  0.72630000  1.0
  H  H822  1  0.71610000  0.93970000  0.75580000  1.0
  H  H823  1  0.73100000  0.00260000  0.75220000  1.0
  H  H824  1  0.44120000  0.94110000  0.68020000  1.0
  H  H825  1  0.52660000  0.92970000  0.61850000  1.0
  H  H826  1  0.46840000  0.91400000  0.60580000  1.0
  H  H827  1  0.51310000  0.86780000  0.61090000  1.0
  H  H828  1  0.44820000  0.81650000  0.64200000  1.0
  H  H829  1  0.40200000  0.86190000  0.63930000  1.0
  H  H830  1  0.42360000  0.84420000  0.67010000  1.0
  H  H831  1  0.37330000  0.73610000  0.68090000  1.0
  H  H832  1  0.43120000  0.61160000  0.70010000  1.0
  H  H833  1  0.38700000  0.61690000  0.72510000  1.0
  H  H834  1  0.45000000  0.62680000  0.73190000  1.0
  H  H835  1  0.39610000  0.76010000  0.73030000  1.0
  H  H836  1  0.42710000  0.71910000  0.75130000  1.0
  H  H837  1  0.36420000  0.70980000  0.74400000  1.0
  H  H838  1  0.54170000  0.62680000  0.59710000  1.0
  H  H839  1  0.49080000  0.75490000  0.59800000  1.0
  H  H840  1  0.52430000  0.75270000  0.56870000  1.0
  H  H841  1  0.54780000  0.78590000  0.59540000  1.0
  H  H842  1  0.62260000  0.66380000  0.59400000  1.0
  H  H843  1  0.63160000  0.72820000  0.59270000  1.0
  H  H844  1  0.60480000  0.69710000  0.56610000  1.0
  H  H845  1  0.64920000  0.50420000  0.67400000  1.0
  H  H846  1  0.51840000  0.55520000  0.72400000  1.0
  H  H847  1  0.56940000  0.52810000  0.73970000  1.0
  H  H848  1  0.52890000  0.49130000  0.72120000  1.0
  H  H849  1  0.51690000  0.56910000  0.67180000  1.0
  H  H850  1  0.52580000  0.50570000  0.66590000  1.0
  H  H851  1  0.56480000  0.54940000  0.65110000  1.0
  H  H852  1  0.72990000  0.59000000  0.79360000  1.0
  H  H853  1  0.83860000  0.65820000  0.73970000  1.0
  H  H854  1  0.81700000  0.59810000  0.73310000  1.0
  H  H855  1  0.85710000  0.60850000  0.75940000  1.0
  H  H856  1  0.79820000  0.71190000  0.77630000  1.0
  H  H857  1  0.81430000  0.67090000  0.80150000  1.0
  H  H858  1  0.75230000  0.68870000  0.79730000  1.0
  H  H859  1  0.76430000  0.63200000  0.60590000  1.0
  H  H860  1  0.83020000  0.66360000  0.68410000  1.0
  H  H861  1  0.84600000  0.70350000  0.65850000  1.0
  H  H862  1  0.86750000  0.64210000  0.65850000  1.0
  H  H863  1  0.76580000  0.59430000  0.67970000  1.0
  H  H864  1  0.79690000  0.56540000  0.65380000  1.0
  H  H865  1  0.73460000  0.58290000  0.65030000  1.0
  H  H866  1  0.77320000  0.88970000  0.61880000  1.0
  H  H867  1  0.61490000  0.85430000  0.59620000  1.0
  H  H868  1  0.66210000  0.82080000  0.58060000  1.0
  H  H869  1  0.65280000  0.88360000  0.57300000  1.0
  H  H870  1  0.69960000  0.94180000  0.63670000  1.0
  H  H871  1  0.63720000  0.93040000  0.62920000  1.0
  H  H872  1  0.67660000  0.95620000  0.60560000  1.0
  H  H873  1  0.46610000  0.81070000  0.96550000  1.0
  H  H874  1  0.44580000  0.86420000  0.98170000  1.0
  H  H875  1  0.50270000  0.86450000  0.96510000  1.0
  H  H876  1  0.51390000  0.27980000  0.34380000  1.0
  H  H877  1  0.54310000  0.31630000  0.32400000  1.0
  H  H878  1  0.59110000  0.21690000  0.31230000  1.0
  H  H879  1  0.55030000  0.18490000  0.32860000  1.0
  H  H880  1  0.17790000  0.17070000  0.31480000  1.0
  H  H881  1  0.21340000  0.12170000  0.31540000  1.0
  H  H882  1  0.15320000  0.09700000  0.26660000  1.0
  H  H883  1  0.12710000  0.15100000  0.26860000  1.0
  H  H884  1  0.40110000  0.95140000  0.18110000  1.0
  H  H885  1  0.42290000  0.95730000  0.21050000  1.0
  H  H886  1  0.50790000  0.98240000  0.17380000  1.0
  H  H887  1  0.48400000  0.00220000  0.14650000  1.0
  H  H888  1  0.62310000  0.32260000  0.14470000  1.0
  H  H889  1  0.60680000  0.36870000  0.16320000  1.0
  H  H890  1  0.54340000  0.37930000  0.11260000  1.0
  H  H891  1  0.55980000  0.32410000  0.10320000  1.0
  H  H892  1  0.30680000  0.52460000  0.21450000  1.0
  H  H893  1  0.35590000  0.52030000  0.23280000  1.0
  H  H894  1  0.27530000  0.48650000  0.26870000  1.0
  H  H895  1  0.23010000  0.47170000  0.24930000  1.0
  H  H896  1  0.20880000  0.29250000  0.08690000  1.0
  H  H897  1  0.16790000  0.28070000  0.10910000  1.0
  H  H898  1  0.19950000  0.18290000  0.09130000  1.0
  H  H899  1  0.25420000  0.18940000  0.07860000  1.0
  H  H900  1  0.43760000  0.32550000  0.34180000  1.0
  H  H901  1  0.48180000  0.41090000  0.26990000  1.0
  H  H902  1  0.52920000  0.37940000  0.28650000  1.0
  H  H903  1  0.50010000  0.43050000  0.30110000  1.0
  H  H904  1  0.36940000  0.37010000  0.31440000  1.0
  H  H905  1  0.38210000  0.40750000  0.28720000  1.0
  H  H906  1  0.40090000  0.42650000  0.31840000  1.0
  H  H907  1  0.59920000  0.15570000  0.27700000  1.0
  H  H908  1  0.47950000  0.12490000  0.31950000  1.0
  H  H909  1  0.50200000  0.06510000  0.31310000  1.0
  H  H910  1  0.44950000  0.08700000  0.29660000  1.0
  H  H911  1  0.55590000  0.09630000  0.24300000  1.0
  H  H912  1  0.49810000  0.06840000  0.24850000  1.0
  H  H913  1  0.55060000  0.04740000  0.26540000  1.0
  H  H914  1  0.24870000  0.22920000  0.32380000  1.0
  H  H915  1  0.36290000  0.10200000  0.31090000  1.0
  H  H916  1  0.30070000  0.08820000  0.30400000  1.0
  H  H917  1  0.32030000  0.09460000  0.33640000  1.0
  H  H918  1  0.39430000  0.18770000  0.32130000  1.0
  H  H919  1  0.35950000  0.19850000  0.34960000  1.0
  H  H920  1  0.35710000  0.24090000  0.32370000  1.0
  H  H921  1  0.15230000  0.09300000  0.22130000  1.0
  H  H922  1  0.13880000  0.25440000  0.21070000  1.0
  H  H923  1  0.13280000  0.23050000  0.24240000  1.0
  H  H924  1  0.08700000  0.21830000  0.21900000  1.0
  H  H925  1  0.32220000  0.98370000  0.19190000  1.0
  H  H926  1  0.37820000  0.03370000  0.26940000  1.0
  H  H927  1  0.41750000  0.00180000  0.24790000  1.0
  H  H928  1  0.36920000  0.97020000  0.26360000  1.0
  H  H929  1  0.25940000  0.03870000  0.22630000  1.0
  H  H930  1  0.28390000  0.06030000  0.25580000  1.0
  H  H931  1  0.26900000  0.99740000  0.25220000  1.0
  H  H932  1  0.55880000  0.05890000  0.18020000  1.0
  H  H933  1  0.47340000  0.07030000  0.11850000  1.0
  H  H934  1  0.53160000  0.08600000  0.10580000  1.0
  H  H935  1  0.48690000  0.13220000  0.11090000  1.0
  H  H936  1  0.55180000  0.18350000  0.14200000  1.0
  H  H937  1  0.59800000  0.13810000  0.13930000  1.0
  H  H938  1  0.57640000  0.15580000  0.17010000  1.0
  H  H939  1  0.62670000  0.26390000  0.18090000  1.0
  H  H940  1  0.56880000  0.38840000  0.20010000  1.0
  H  H941  1  0.61300000  0.38310000  0.22510000  1.0
  H  H942  1  0.55000000  0.37320000  0.23190000  1.0
  H  H943  1  0.60390000  0.23990000  0.23030000  1.0
  H  H944  1  0.57290000  0.28090000  0.25130000  1.0
  H  H945  1  0.63580000  0.29020000  0.24400000  1.0
  H  H946  1  0.45830000  0.37320000  0.09710000  1.0
  H  H947  1  0.50920000  0.24510000  0.09800000  1.0
  H  H948  1  0.47570000  0.24730000  0.06870000  1.0
  H  H949  1  0.45220000  0.21410000  0.09540000  1.0
  H  H950  1  0.37740000  0.33620000  0.09400000  1.0
  H  H951  1  0.36840000  0.27180000  0.09270000  1.0
  H  H952  1  0.39520000  0.30290000  0.06610000  1.0
  H  H953  1  0.35080000  0.49580000  0.17400000  1.0
  H  H954  1  0.48160000  0.44480000  0.22400000  1.0
  H  H955  1  0.43060000  0.47190000  0.23970000  1.0
  H  H956  1  0.47110000  0.50870000  0.22120000  1.0
  H  H957  1  0.48310000  0.43090000  0.17180000  1.0
  H  H958  1  0.47420000  0.49430000  0.16590000  1.0
  H  H959  1  0.43520000  0.45060000  0.15110000  1.0
  H  H960  1  0.27010000  0.41000000  0.29360000  1.0
  H  H961  1  0.16140000  0.34180000  0.23970000  1.0
  H  H962  1  0.18300000  0.40190000  0.23310000  1.0
  H  H963  1  0.14290000  0.39150000  0.25940000  1.0
  H  H964  1  0.20180000  0.28810000  0.27630000  1.0
  H  H965  1  0.18570000  0.32910000  0.30150000  1.0
  H  H966  1  0.24770000  0.31130000  0.29730000  1.0
  H  H967  1  0.23570000  0.36800000  0.10590000  1.0
  H  H968  1  0.16980000  0.33640000  0.18410000  1.0
  H  H969  1  0.15400000  0.29650000  0.15850000  1.0
  H  H970  1  0.13250000  0.35790000  0.15850000  1.0
  H  H971  1  0.23420000  0.40570000  0.17970000  1.0
  H  H972  1  0.20310000  0.43460000  0.15380000  1.0
  H  H973  1  0.26540000  0.41710000  0.15030000  1.0
  H  H974  1  0.22680000  0.11030000  0.11880000  1.0
  H  H975  1  0.38510000  0.14570000  0.09620000  1.0
  H  H976  1  0.33790000  0.17920000  0.08060000  1.0
  H  H977  1  0.34720000  0.11640000  0.07300000  1.0
  H  H978  1  0.30040000  0.05820000  0.13670000  1.0
  H  H979  1  0.36280000  0.06960000  0.12920000  1.0
  H  H980  1  0.32340000  0.04380000  0.10560000  1.0
  H  H981  1  0.53390000  0.18930000  0.46550000  1.0
  H  H982  1  0.55420000  0.13580000  0.48170000  1.0
  H  H983  1  0.49730000  0.13550000  0.46510000  1.0
  Pt  Pt984  1  0.75610000  0.50005000  0.20525000  1.0
  Pt  Pt985  1  0.83512000  0.77542000  0.23281000  1.0
  Pt  Pt986  1  0.95333000  0.56755000  0.31356000  1.0
  Pt  Pt987  1  0.68418000  0.47755000  0.34808000  1.0
  Pt  Pt988  1  0.57183000  0.68611000  0.26961000  1.0
  Pt  Pt989  1  0.76155000  0.74667000  0.37614000  1.0
  Pt  Pt990  1  0.24390000  0.49995000  0.70525000  1.0
  Pt  Pt991  1  0.16488000  0.22458000  0.73281000  1.0
  Pt  Pt992  1  0.04667000  0.43245000  0.81356000  1.0
  Pt  Pt993  1  0.31582000  0.52245000  0.84808000  1.0
  Pt  Pt994  1  0.42817000  0.31389000  0.76961000  1.0
  Pt  Pt995  1  0.23845000  0.25333000  0.87614000  1.0
  Pt  Pt996  1  0.99995000  0.25610000  0.45525000  1.0
  Pt  Pt997  1  0.72458000  0.33512000  0.48281000  1.0
  Pt  Pt998  1  0.93245000  0.45333000  0.56356000  1.0
  Pt  Pt999  1  0.02245000  0.18418000  0.59808000  1.0
  Pt  Pt1000  1  0.81389000  0.07183000  0.51961000  1.0
  Pt  Pt1001  1  0.75333000  0.26155000  0.62614000  1.0
  Pt  Pt1002  1  0.00005000  0.74390000  0.95525000  1.0
  Pt  Pt1003  1  0.27542000  0.66488000  0.98281000  1.0
  Pt  Pt1004  1  0.06755000  0.54667000  0.06356000  1.0
  Pt  Pt1005  1  0.97755000  0.81582000  0.09808000  1.0
  Pt  Pt1006  1  0.18611000  0.92817000  0.01961000  1.0
  Pt  Pt1007  1  0.24667000  0.73845000  0.12614000  1.0
  Pt  Pt1008  1  0.74390000  0.00005000  0.04475000  1.0
  Pt  Pt1009  1  0.66488000  0.27542000  0.01719000  1.0
  Pt  Pt1010  1  0.54667000  0.06755000  0.93644000  1.0
  Pt  Pt1011  1  0.81582000  0.97755000  0.90192000  1.0
  Pt  Pt1012  1  0.92817000  0.18611000  0.98039000  1.0
  Pt  Pt1013  1  0.73845000  0.24667000  0.87386000  1.0
  Pt  Pt1014  1  0.25610000  0.99995000  0.54475000  1.0
  Pt  Pt1015  1  0.33512000  0.72458000  0.51719000  1.0
  Pt  Pt1016  1  0.45333000  0.93245000  0.43644000  1.0
  Pt  Pt1017  1  0.18418000  0.02245000  0.40192000  1.0
  Pt  Pt1018  1  0.07183000  0.81389000  0.48039000  1.0
  Pt  Pt1019  1  0.26155000  0.75333000  0.37386000  1.0
  Pt  Pt1020  1  0.50005000  0.75610000  0.79475000  1.0
  Pt  Pt1021  1  0.77542000  0.83512000  0.76719000  1.0
  Pt  Pt1022  1  0.56755000  0.95333000  0.68644000  1.0
  Pt  Pt1023  1  0.47755000  0.68418000  0.65192000  1.0
  Pt  Pt1024  1  0.68611000  0.57183000  0.73039000  1.0
  Pt  Pt1025  1  0.74667000  0.76155000  0.62386000  1.0
  Pt  Pt1026  1  0.49995000  0.24390000  0.29475000  1.0
  Pt  Pt1027  1  0.22458000  0.16488000  0.26719000  1.0
  Pt  Pt1028  1  0.43245000  0.04667000  0.18644000  1.0
  Pt  Pt1029  1  0.52245000  0.31582000  0.15192000  1.0
  Pt  Pt1030  1  0.31389000  0.42817000  0.23039000  1.0
  Pt  Pt1031  1  0.25333000  0.23845000  0.12386000  1.0
  C  C1032  1  0.63680000  0.54500000  0.19875000  1.0
  C  C1033  1  0.65910000  0.52970000  0.16790000  1.0
  C  C1034  1  0.61450000  0.50490000  0.15029000  1.0
  C  C1035  1  0.60120000  0.50530000  0.21133000  1.0
  C  C1036  1  0.60490000  0.60420000  0.19420000  1.0
  C  C1037  1  0.88010000  0.47900000  0.21882000  1.0
  C  C1038  1  0.85360000  0.42630000  0.20709000  1.0
  C  C1039  1  0.88940000  0.39870000  0.18505000  1.0
  C  C1040  1  0.90280000  0.51520000  0.19531000  1.0
  C  C1041  1  0.92060000  0.46760000  0.24259000  1.0
  C  C1042  1  0.82920000  0.68830000  0.18430000  1.0
  C  C1043  1  0.81090000  0.74590000  0.17443000  1.0
  C  C1044  1  0.83200000  0.74980000  0.14081000  1.0
  C  C1045  1  0.89210000  0.67480000  0.18313000  1.0
  C  C1046  1  0.79760000  0.63990000  0.17121000  1.0
  C  C1047  1  0.82710000  0.84390000  0.28693000  1.0
  C  C1048  1  0.87370000  0.86520000  0.27068000  1.0
  C  C1049  1  0.88390000  0.92790000  0.27089000  1.0
  C  C1050  1  0.77660000  0.87390000  0.27790000  1.0
  C  C1051  1  0.98210000  0.65660000  0.26894000  1.0
  C  C1052  1  0.02540000  0.65210000  0.29230000  1.0
  C  C1053  1  0.08420000  0.66410000  0.28160000  1.0
  C  C1054  1  0.99520000  0.61990000  0.24502000  1.0
  C  C1055  1  0.97030000  0.71700000  0.25754000  1.0
  C  C1056  1  0.89300000  0.47630000  0.35130000  1.0
  C  C1057  1  0.94770000  0.45740000  0.33909000  1.0
  C  C1058  1  0.91510000  0.52270000  0.10752000  1.0
  C  C1059  1  0.90190000  0.49810000  0.38180000  1.0
  C  C1060  1  0.85030000  0.43390000  0.34984000  1.0
  C  C1061  1  0.68720000  0.41500000  0.28880000  1.0
  C  C1062  1  0.69640000  0.37510000  0.31480000  1.0
  C  C1063  1  0.67490000  0.31610000  0.30862000  1.0
  C  C1064  1  0.63140000  0.42130000  0.28244000  1.0
  C  C1065  1  0.72210000  0.39920000  0.26359000  1.0
  C  C1066  1  0.70660000  0.55440000  0.40085000  1.0
  C  C1067  1  0.65980000  0.51960000  0.40760000  1.0
  C  C1068  1  0.65190000  0.50060000  0.43882000  1.0
  C  C1069  1  0.75360000  0.52720000  0.41040000  1.0
  C  C1070  1  0.69830000  0.60760000  0.41300000  1.0
  C  C1071  1  0.53760000  0.58330000  0.30564000  1.0
  C  C1072  1  0.49550000  0.62650000  0.30885000  1.0
  C  C1073  1  0.43680000  0.60150000  0.31239000  1.0
  C  C1074  1  0.52700000  0.54630000  0.27739000  1.0
  C  C1075  1  0.54070000  0.54410000  0.33159000  1.0
  C  C1076  1  0.63370000  0.77780000  0.23210000  1.0
  C  C1077  1  0.58140000  0.76160000  0.21901000  1.0
  C  C1078  1  0.94010000  0.30580000  0.05077000  1.0
  C  C1079  1  0.62370000  0.82710000  0.25177000  1.0
  C  C1080  1  0.68020000  0.78640000  0.21261000  1.0
  C  C1081  1  0.64870000  0.78760000  0.35231000  1.0
  C  C1082  1  0.65070000  0.79550000  0.38460000  1.0
  C  C1083  1  0.62160000  0.84910000  0.39297000  1.0
  C  C1084  1  0.66590000  0.83700000  0.33645000  1.0
  C  C1085  1  0.59280000  0.76960000  0.34110000  1.0
  C  C1086  1  0.87190000  0.68960000  0.38909000  1.0
  C  C1087  1  0.87810000  0.75140000  0.39819000  1.0
  C  C1088  1  0.92090000  0.75820000  0.42253000  1.0
  C  C1089  1  0.85640000  0.65180000  0.41167000  1.0
  C  C1090  1  0.93060000  0.67430000  0.37840000  1.0
  C  C1091  1  0.86750000  0.43950000  0.05950000  1.0
  C  C1092  1  0.85050000  0.46540000  0.03500000  1.0
  C  C1093  1  0.36320000  0.45500000  0.69875000  1.0
  C  C1094  1  0.34090000  0.47030000  0.66790000  1.0
  C  C1095  1  0.38550000  0.49510000  0.65029000  1.0
  C  C1096  1  0.39880000  0.49470000  0.71133000  1.0
  C  C1097  1  0.39510000  0.39580000  0.69420000  1.0
  C  C1098  1  0.11990000  0.52100000  0.71882000  1.0
  C  C1099  1  0.14640000  0.57370000  0.70709000  1.0
  C  C1100  1  0.11060000  0.60130000  0.68505000  1.0
  C  C1101  1  0.09720000  0.48480000  0.69531000  1.0
  C  C1102  1  0.07940000  0.53240000  0.74259000  1.0
  C  C1103  1  0.17080000  0.31170000  0.68430000  1.0
  C  C1104  1  0.18910000  0.25410000  0.67443000  1.0
  C  C1105  1  0.16800000  0.25020000  0.64081000  1.0
  C  C1106  1  0.10790000  0.32520000  0.68313000  1.0
  C  C1107  1  0.20240000  0.36010000  0.67121000  1.0
  C  C1108  1  0.17290000  0.15610000  0.78693000  1.0
  C  C1109  1  0.12630000  0.13480000  0.77068000  1.0
  C  C1110  1  0.11610000  0.07210000  0.77089000  1.0
  C  C1111  1  0.22340000  0.12610000  0.77790000  1.0
  C  C1112  1  0.01790000  0.34340000  0.76894000  1.0
  C  C1113  1  0.97460000  0.34790000  0.79230000  1.0
  C  C1114  1  0.91580000  0.33590000  0.78160000  1.0
  C  C1115  1  0.00480000  0.38010000  0.74502000  1.0
  C  C1116  1  0.02970000  0.28300000  0.75754000  1.0
  C  C1117  1  0.10700000  0.52370000  0.85130000  1.0
  C  C1118  1  0.05230000  0.54260000  0.83909000  1.0
  C  C1119  1  0.08490000  0.47730000  0.60752000  1.0
  C  C1120  1  0.09810000  0.50190000  0.88180000  1.0
  C  C1121  1  0.14970000  0.56610000  0.84984000  1.0
  C  C1122  1  0.31280000  0.58500000  0.78880000  1.0
  C  C1123  1  0.30360000  0.62490000  0.81480000  1.0
  C  C1124  1  0.32510000  0.68390000  0.80862000  1.0
  C  C1125  1  0.36860000  0.57870000  0.78244000  1.0
  C  C1126  1  0.27790000  0.60080000  0.76359000  1.0
  C  C1127  1  0.29340000  0.44560000  0.90085000  1.0
  C  C1128  1  0.34020000  0.48040000  0.90760000  1.0
  C  C1129  1  0.34810000  0.49940000  0.93882000  1.0
  C  C1130  1  0.24640000  0.47280000  0.91040000  1.0
  C  C1131  1  0.30170000  0.39240000  0.91300000  1.0
  C  C1132  1  0.46240000  0.41670000  0.80564000  1.0
  C  C1133  1  0.50450000  0.37350000  0.80885000  1.0
  C  C1134  1  0.56320000  0.39850000  0.81239000  1.0
  C  C1135  1  0.47300000  0.45370000  0.77739000  1.0
  C  C1136  1  0.45930000  0.45590000  0.83159000  1.0
  C  C1137  1  0.36630000  0.22220000  0.73210000  1.0
  C  C1138  1  0.41860000  0.23840000  0.71901000  1.0
  C  C1139  1  0.05990000  0.69420000  0.55077000  1.0
  C  C1140  1  0.37630000  0.17290000  0.75177000  1.0
  C  C1141  1  0.31980000  0.21360000  0.71261000  1.0
  C  C1142  1  0.35130000  0.21240000  0.85231000  1.0
  C  C1143  1  0.34930000  0.20450000  0.88460000  1.0
  C  C1144  1  0.37840000  0.15090000  0.89297000  1.0
  C  C1145  1  0.33410000  0.16300000  0.83645000  1.0
  C  C1146  1  0.40720000  0.23040000  0.84110000  1.0
  C  C1147  1  0.12810000  0.31040000  0.88909000  1.0
  C  C1148  1  0.12190000  0.24860000  0.89819000  1.0
  C  C1149  1  0.07910000  0.24180000  0.92253000  1.0
  C  C1150  1  0.14360000  0.34820000  0.91167000  1.0
  C  C1151  1  0.06940000  0.32570000  0.87840000  1.0
  C  C1152  1  0.13250000  0.56050000  0.55950000  1.0
  C  C1153  1  0.14950000  0.53460000  0.53500000  1.0
  C  C1154  1  0.95500000  0.13680000  0.44875000  1.0
  C  C1155  1  0.97030000  0.15910000  0.41790000  1.0
  C  C1156  1  0.99510000  0.11450000  0.40029000  1.0
  C  C1157  1  0.99470000  0.10120000  0.46133000  1.0
  C  C1158  1  0.89580000  0.10490000  0.44420000  1.0
  C  C1159  1  0.02100000  0.38010000  0.46882000  1.0
  C  C1160  1  0.07370000  0.35360000  0.45709000  1.0
  C  C1161  1  0.10130000  0.38940000  0.43505000  1.0
  C  C1162  1  0.98480000  0.40280000  0.44531000  1.0
  C  C1163  1  0.03240000  0.42060000  0.49259000  1.0
  C  C1164  1  0.81170000  0.32920000  0.43430000  1.0
  C  C1165  1  0.75410000  0.31090000  0.42443000  1.0
  C  C1166  1  0.75020000  0.33200000  0.39081000  1.0
  C  C1167  1  0.82520000  0.39210000  0.43313000  1.0
  C  C1168  1  0.86010000  0.29760000  0.42121000  1.0
  C  C1169  1  0.65610000  0.32710000  0.53693000  1.0
  C  C1170  1  0.63480000  0.37370000  0.52068000  1.0
  C  C1171  1  0.57210000  0.38390000  0.52089000  1.0
  C  C1172  1  0.62610000  0.27660000  0.52790000  1.0
  C  C1173  1  0.84340000  0.48210000  0.51894000  1.0
  C  C1174  1  0.84790000  0.52540000  0.54230000  1.0
  C  C1175  1  0.83590000  0.58420000  0.53160000  1.0
  C  C1176  1  0.88010000  0.49520000  0.49502000  1.0
  C  C1177  1  0.78300000  0.47030000  0.50754000  1.0
  C  C1178  1  0.02370000  0.39300000  0.60130000  1.0
  C  C1179  1  0.04260000  0.44770000  0.58909000  1.0
  C  C1180  1  0.97730000  0.41510000  0.35752000  1.0
  C  C1181  1  0.00190000  0.40190000  0.63180000  1.0
  C  C1182  1  0.06610000  0.35030000  0.59984000  1.0
  C  C1183  1  0.08500000  0.18720000  0.53880000  1.0
  C  C1184  1  0.12490000  0.19640000  0.56480000  1.0
  C  C1185  1  0.18390000  0.17490000  0.55862000  1.0
  C  C1186  1  0.07870000  0.13140000  0.53244000  1.0
  C  C1187  1  0.10080000  0.22210000  0.51359000  1.0
  C  C1188  1  0.94560000  0.20660000  0.65085000  1.0
  C  C1189  1  0.98040000  0.15980000  0.65760000  1.0
  C  C1190  1  0.99940000  0.15190000  0.68882000  1.0
  C  C1191  1  0.97280000  0.25360000  0.66040000  1.0
  C  C1192  1  0.89240000  0.19830000  0.66300000  1.0
  C  C1193  1  0.91670000  0.03760000  0.55564000  1.0
  C  C1194  1  0.87350000  0.99550000  0.55885000  1.0
  C  C1195  1  0.89850000  0.93680000  0.56239000  1.0
  C  C1196  1  0.95370000  0.02700000  0.52739000  1.0
  C  C1197  1  0.95590000  0.04070000  0.58159000  1.0
  C  C1198  1  0.72220000  0.13370000  0.48210000  1.0
  C  C1199  1  0.73840000  0.08140000  0.46901000  1.0
  C  C1200  1  0.19420000  0.44010000  0.30077000  1.0
  C  C1201  1  0.67290000  0.12370000  0.50177000  1.0
  C  C1202  1  0.71360000  0.18020000  0.46261000  1.0
  C  C1203  1  0.71240000  0.14870000  0.60231000  1.0
  C  C1204  1  0.70450000  0.15070000  0.63460000  1.0
  C  C1205  1  0.65090000  0.12160000  0.64297000  1.0
  C  C1206  1  0.66300000  0.16590000  0.58645000  1.0
  C  C1207  1  0.73040000  0.09280000  0.59110000  1.0
  C  C1208  1  0.81040000  0.37190000  0.63909000  1.0
  C  C1209  1  0.74860000  0.37810000  0.64819000  1.0
  C  C1210  1  0.74180000  0.42090000  0.67253000  1.0
  C  C1211  1  0.84820000  0.35640000  0.66167000  1.0
  C  C1212  1  0.82570000  0.43060000  0.62840000  1.0
  C  C1213  1  0.06050000  0.36750000  0.30950000  1.0
  C  C1214  1  0.03460000  0.35050000  0.28500000  1.0
  C  C1215  1  0.04500000  0.86320000  0.94875000  1.0
  C  C1216  1  0.02970000  0.84090000  0.91790000  1.0
  C  C1217  1  0.00490000  0.88550000  0.90029000  1.0
  C  C1218  1  0.00530000  0.89880000  0.96133000  1.0
  C  C1219  1  0.10420000  0.89510000  0.94420000  1.0
  C  C1220  1  0.97900000  0.61990000  0.96882000  1.0
  C  C1221  1  0.92630000  0.64640000  0.95709000  1.0
  C  C1222  1  0.89870000  0.61060000  0.93505000  1.0
  C  C1223  1  0.01520000  0.59720000  0.94531000  1.0
  C  C1224  1  0.96760000  0.57940000  0.99259000  1.0
  C  C1225  1  0.18830000  0.67080000  0.93430000  1.0
  C  C1226  1  0.24590000  0.68910000  0.92443000  1.0
  C  C1227  1  0.24980000  0.66800000  0.89081000  1.0
  C  C1228  1  0.17480000  0.60790000  0.93313000  1.0
  C  C1229  1  0.13990000  0.70240000  0.92121000  1.0
  C  C1230  1  0.34390000  0.67290000  0.03693000  1.0
  C  C1231  1  0.36520000  0.62630000  0.02068000  1.0
  C  C1232  1  0.42790000  0.61610000  0.02089000  1.0
  C  C1233  1  0.37390000  0.72340000  0.02790000  1.0
  C  C1234  1  0.15660000  0.51790000  0.01894000  1.0
  C  C1235  1  0.15210000  0.47460000  0.04230000  1.0
  C  C1236  1  0.16410000  0.41580000  0.03160000  1.0
  C  C1237  1  0.11990000  0.50480000  0.99502000  1.0
  C  C1238  1  0.21700000  0.52970000  0.00754000  1.0
  C  C1239  1  0.97630000  0.60700000  0.10130000  1.0
  C  C1240  1  0.95740000  0.55230000  0.08909000  1.0
  C  C1241  1  0.02270000  0.58490000  0.85752000  1.0
  C  C1242  1  0.99810000  0.59810000  0.13180000  1.0
  C  C1243  1  0.93390000  0.64970000  0.09984000  1.0
  C  C1244  1  0.91500000  0.81280000  0.03880000  1.0
  C  C1245  1  0.87510000  0.80360000  0.06480000  1.0
  C  C1246  1  0.81610000  0.82510000  0.05862000  1.0
  C  C1247  1  0.92130000  0.86860000  0.03244000  1.0
  C  C1248  1  0.89920000  0.77790000  0.01359000  1.0
  C  C1249  1  0.05440000  0.79340000  0.15085000  1.0
  C  C1250  1  0.01960000  0.84020000  0.15760000  1.0
  C  C1251  1  0.00060000  0.84810000  0.18882000  1.0
  C  C1252  1  0.02720000  0.74640000  0.16040000  1.0
  C  C1253  1  0.10760000  0.80170000  0.16300000  1.0
  C  C1254  1  0.08330000  0.96240000  0.05564000  1.0
  C  C1255  1  0.12650000  0.00450000  0.05885000  1.0
  C  C1256  1  0.10150000  0.06320000  0.06239000  1.0
  C  C1257  1  0.04630000  0.97300000  0.02739000  1.0
  C  C1258  1  0.04410000  0.95930000  0.08159000  1.0
  C  C1259  1  0.27780000  0.86630000  0.98210000  1.0
  C  C1260  1  0.26160000  0.91860000  0.96901000  1.0
  C  C1261  1  0.80580000  0.55990000  0.80077000  1.0
  C  C1262  1  0.32710000  0.87630000  0.00177000  1.0
  C  C1263  1  0.28640000  0.81980000  0.96261000  1.0
  C  C1264  1  0.28760000  0.85130000  0.10231000  1.0
  C  C1265  1  0.29550000  0.84930000  0.13460000  1.0
  C  C1266  1  0.34910000  0.87840000  0.14297000  1.0
  C  C1267  1  0.33700000  0.83410000  0.08645000  1.0
  C  C1268  1  0.26960000  0.90720000  0.09110000  1.0
  C  C1269  1  0.18960000  0.62810000  0.13909000  1.0
  C  C1270  1  0.25140000  0.62190000  0.14819000  1.0
  C  C1271  1  0.25820000  0.57910000  0.17253000  1.0
  C  C1272  1  0.15180000  0.64360000  0.16167000  1.0
  C  C1273  1  0.17430000  0.56940000  0.12840000  1.0
  C  C1274  1  0.93950000  0.63250000  0.80950000  1.0
  C  C1275  1  0.96540000  0.64950000  0.78500000  1.0
  C  C1276  1  0.86320000  0.04500000  0.05125000  1.0
  C  C1277  1  0.84090000  0.02970000  0.08210000  1.0
  C  C1278  1  0.88550000  0.00490000  0.09971000  1.0
  C  C1279  1  0.89880000  0.00530000  0.03867000  1.0
  C  C1280  1  0.89510000  0.10420000  0.05580000  1.0
  C  C1281  1  0.61990000  0.97900000  0.03118000  1.0
  C  C1282  1  0.64640000  0.92630000  0.04291000  1.0
  C  C1283  1  0.61060000  0.89870000  0.06495000  1.0
  C  C1284  1  0.59720000  0.01520000  0.05469000  1.0
  C  C1285  1  0.57940000  0.96760000  0.00741000  1.0
  C  C1286  1  0.67080000  0.18830000  0.06570000  1.0
  C  C1287  1  0.68910000  0.24590000  0.07557000  1.0
  C  C1288  1  0.66800000  0.24980000  0.10919000  1.0
  C  C1289  1  0.60790000  0.17480000  0.06687000  1.0
  C  C1290  1  0.70240000  0.13990000  0.07879000  1.0
  C  C1291  1  0.67290000  0.34390000  0.96307000  1.0
  C  C1292  1  0.62630000  0.36520000  0.97932000  1.0
  C  C1293  1  0.61610000  0.42790000  0.97911000  1.0
  C  C1294  1  0.72340000  0.37390000  0.97210000  1.0
  C  C1295  1  0.51790000  0.15660000  0.98106000  1.0
  C  C1296  1  0.47460000  0.15210000  0.95770000  1.0
  C  C1297  1  0.41580000  0.16410000  0.96840000  1.0
  C  C1298  1  0.50480000  0.11990000  0.00498000  1.0
  C  C1299  1  0.52970000  0.21700000  0.99246000  1.0
  C  C1300  1  0.60700000  0.97630000  0.89870000  1.0
  C  C1301  1  0.55230000  0.95740000  0.91091000  1.0
  C  C1302  1  0.58490000  0.02270000  0.14248000  1.0
  C  C1303  1  0.59810000  0.99810000  0.86820000  1.0
  C  C1304  1  0.64970000  0.93390000  0.90016000  1.0
  C  C1305  1  0.81280000  0.91500000  0.96120000  1.0
  C  C1306  1  0.80360000  0.87510000  0.93520000  1.0
  C  C1307  1  0.82510000  0.81610000  0.94138000  1.0
  C  C1308  1  0.86860000  0.92130000  0.96756000  1.0
  C  C1309  1  0.77790000  0.89920000  0.98641000  1.0
  C  C1310  1  0.79340000  0.05440000  0.84915000  1.0
  C  C1311  1  0.84020000  0.01960000  0.84240000  1.0
  C  C1312  1  0.84810000  0.00060000  0.81118000  1.0
  C  C1313  1  0.74640000  0.02720000  0.83960000  1.0
  C  C1314  1  0.80170000  0.10760000  0.83700000  1.0
  C  C1315  1  0.96240000  0.08330000  0.94436000  1.0
  C  C1316  1  0.00450000  0.12650000  0.94115000  1.0
  C  C1317  1  0.06320000  0.10150000  0.93761000  1.0
  C  C1318  1  0.97300000  0.04630000  0.97261000  1.0
  C  C1319  1  0.95930000  0.04410000  0.91841000  1.0
  C  C1320  1  0.86630000  0.27780000  0.01790000  1.0
  C  C1321  1  0.91860000  0.26160000  0.03099000  1.0
  C  C1322  1  0.55990000  0.80580000  0.19923000  1.0
  C  C1323  1  0.87630000  0.32710000  0.99823000  1.0
  C  C1324  1  0.81980000  0.28640000  0.03739000  1.0
  C  C1325  1  0.85130000  0.28760000  0.89769000  1.0
  C  C1326  1  0.84930000  0.29550000  0.86540000  1.0
  C  C1327  1  0.87840000  0.34910000  0.85703000  1.0
  C  C1328  1  0.83410000  0.33700000  0.91355000  1.0
  C  C1329  1  0.90720000  0.26960000  0.90890000  1.0
  C  C1330  1  0.62810000  0.18960000  0.86091000  1.0
  C  C1331  1  0.62190000  0.25140000  0.85181000  1.0
  C  C1332  1  0.57910000  0.25820000  0.82747000  1.0
  C  C1333  1  0.64360000  0.15180000  0.83833000  1.0
  C  C1334  1  0.56940000  0.17430000  0.87160000  1.0
  C  C1335  1  0.63250000  0.93950000  0.19050000  1.0
  C  C1336  1  0.64950000  0.96540000  0.21500000  1.0
  C  C1337  1  0.13680000  0.95500000  0.55125000  1.0
  C  C1338  1  0.15910000  0.97030000  0.58210000  1.0
  C  C1339  1  0.11450000  0.99510000  0.59971000  1.0
  C  C1340  1  0.10120000  0.99470000  0.53867000  1.0
  C  C1341  1  0.10490000  0.89580000  0.55580000  1.0
  C  C1342  1  0.38010000  0.02100000  0.53118000  1.0
  C  C1343  1  0.35360000  0.07370000  0.54291000  1.0
  C  C1344  1  0.38940000  0.10130000  0.56495000  1.0
  C  C1345  1  0.40280000  0.98480000  0.55469000  1.0
  C  C1346  1  0.42060000  0.03240000  0.50741000  1.0
  C  C1347  1  0.32920000  0.81170000  0.56570000  1.0
  C  C1348  1  0.31090000  0.75410000  0.57557000  1.0
  C  C1349  1  0.33200000  0.75020000  0.60919000  1.0
  C  C1350  1  0.39210000  0.82520000  0.56687000  1.0
  C  C1351  1  0.29760000  0.86010000  0.57879000  1.0
  C  C1352  1  0.32710000  0.65610000  0.46307000  1.0
  C  C1353  1  0.37370000  0.63480000  0.47932000  1.0
  C  C1354  1  0.38390000  0.57210000  0.47911000  1.0
  C  C1355  1  0.27660000  0.62610000  0.47210000  1.0
  C  C1356  1  0.48210000  0.84340000  0.48106000  1.0
  C  C1357  1  0.52540000  0.84790000  0.45770000  1.0
  C  C1358  1  0.58420000  0.83590000  0.46840000  1.0
  C  C1359  1  0.49520000  0.88010000  0.50498000  1.0
  C  C1360  1  0.47030000  0.78300000  0.49246000  1.0
  C  C1361  1  0.39300000  0.02370000  0.39870000  1.0
  C  C1362  1  0.44770000  0.04260000  0.41091000  1.0
  C  C1363  1  0.41510000  0.97730000  0.64248000  1.0
  C  C1364  1  0.40190000  0.00190000  0.36820000  1.0
  C  C1365  1  0.35030000  0.06610000  0.40016000  1.0
  C  C1366  1  0.18720000  0.08500000  0.46120000  1.0
  C  C1367  1  0.19640000  0.12490000  0.43520000  1.0
  C  C1368  1  0.17490000  0.18390000  0.44138000  1.0
  C  C1369  1  0.13140000  0.07870000  0.46756000  1.0
  C  C1370  1  0.22210000  0.10080000  0.48641000  1.0
  C  C1371  1  0.20660000  0.94560000  0.34915000  1.0
  C  C1372  1  0.15980000  0.98040000  0.34240000  1.0
  C  C1373  1  0.15190000  0.99940000  0.31118000  1.0
  C  C1374  1  0.25360000  0.97280000  0.33960000  1.0
  C  C1375  1  0.19830000  0.89240000  0.33700000  1.0
  C  C1376  1  0.03760000  0.91670000  0.44436000  1.0
  C  C1377  1  0.99550000  0.87350000  0.44115000  1.0
  C  C1378  1  0.93680000  0.89850000  0.43761000  1.0
  C  C1379  1  0.02700000  0.95370000  0.47261000  1.0
  C  C1380  1  0.04070000  0.95590000  0.41841000  1.0
  C  C1381  1  0.13370000  0.72220000  0.51790000  1.0
  C  C1382  1  0.08140000  0.73840000  0.53099000  1.0
  C  C1383  1  0.44010000  0.19420000  0.69923000  1.0
  C  C1384  1  0.12370000  0.67290000  0.49823000  1.0
  C  C1385  1  0.18020000  0.71360000  0.53739000  1.0
  C  C1386  1  0.14870000  0.71240000  0.39769000  1.0
  C  C1387  1  0.15070000  0.70450000  0.36540000  1.0
  C  C1388  1  0.12160000  0.65090000  0.35703000  1.0
  C  C1389  1  0.16590000  0.66300000  0.41355000  1.0
  C  C1390  1  0.09280000  0.73040000  0.40890000  1.0
  C  C1391  1  0.37190000  0.81040000  0.36091000  1.0
  C  C1392  1  0.37810000  0.74860000  0.35181000  1.0
  C  C1393  1  0.42090000  0.74180000  0.32747000  1.0
  C  C1394  1  0.35640000  0.84820000  0.33833000  1.0
  C  C1395  1  0.43060000  0.82570000  0.37160000  1.0
  C  C1396  1  0.36750000  0.06050000  0.69050000  1.0
  C  C1397  1  0.35050000  0.03460000  0.71500000  1.0
  C  C1398  1  0.54500000  0.63680000  0.80125000  1.0
  C  C1399  1  0.52970000  0.65910000  0.83210000  1.0
  C  C1400  1  0.50490000  0.61450000  0.84971000  1.0
  C  C1401  1  0.50530000  0.60120000  0.78867000  1.0
  C  C1402  1  0.60420000  0.60490000  0.80580000  1.0
  C  C1403  1  0.47900000  0.88010000  0.78118000  1.0
  C  C1404  1  0.42630000  0.85360000  0.79291000  1.0
  C  C1405  1  0.39870000  0.88940000  0.81495000  1.0
  C  C1406  1  0.51520000  0.90280000  0.80469000  1.0
  C  C1407  1  0.46760000  0.92060000  0.75741000  1.0
  C  C1408  1  0.68830000  0.82920000  0.81570000  1.0
  C  C1409  1  0.74590000  0.81090000  0.82557000  1.0
  C  C1410  1  0.74980000  0.83200000  0.85919000  1.0
  C  C1411  1  0.67480000  0.89210000  0.81687000  1.0
  C  C1412  1  0.63990000  0.79760000  0.82879000  1.0
  C  C1413  1  0.84390000  0.82710000  0.71307000  1.0
  C  C1414  1  0.86520000  0.87370000  0.72932000  1.0
  C  C1415  1  0.92790000  0.88390000  0.72911000  1.0
  C  C1416  1  0.87390000  0.77660000  0.72210000  1.0
  C  C1417  1  0.65660000  0.98210000  0.73106000  1.0
  C  C1418  1  0.65210000  0.02540000  0.70770000  1.0
  C  C1419  1  0.66410000  0.08420000  0.71840000  1.0
  C  C1420  1  0.61990000  0.99520000  0.75498000  1.0
  C  C1421  1  0.71700000  0.97030000  0.74246000  1.0
  C  C1422  1  0.47630000  0.89300000  0.64870000  1.0
  C  C1423  1  0.45740000  0.94770000  0.66091000  1.0
  C  C1424  1  0.52270000  0.91510000  0.89248000  1.0
  C  C1425  1  0.49810000  0.90190000  0.61820000  1.0
  C  C1426  1  0.43390000  0.85030000  0.65016000  1.0
  C  C1427  1  0.41500000  0.68720000  0.71120000  1.0
  C  C1428  1  0.37510000  0.69640000  0.68520000  1.0
  C  C1429  1  0.31610000  0.67490000  0.69138000  1.0
  C  C1430  1  0.42130000  0.63140000  0.71756000  1.0
  C  C1431  1  0.39920000  0.72210000  0.73641000  1.0
  C  C1432  1  0.55440000  0.70660000  0.59915000  1.0
  C  C1433  1  0.51960000  0.65980000  0.59240000  1.0
  C  C1434  1  0.50060000  0.65190000  0.56118000  1.0
  C  C1435  1  0.52720000  0.75360000  0.58960000  1.0
  C  C1436  1  0.60760000  0.69830000  0.58700000  1.0
  C  C1437  1  0.58330000  0.53760000  0.69436000  1.0
  C  C1438  1  0.62650000  0.49550000  0.69115000  1.0
  C  C1439  1  0.60150000  0.43680000  0.68761000  1.0
  C  C1440  1  0.54630000  0.52700000  0.72261000  1.0
  C  C1441  1  0.54410000  0.54070000  0.66841000  1.0
  C  C1442  1  0.77780000  0.63370000  0.76790000  1.0
  C  C1443  1  0.76160000  0.58140000  0.78099000  1.0
  C  C1444  1  0.30580000  0.94010000  0.94923000  1.0
  C  C1445  1  0.82710000  0.62370000  0.74823000  1.0
  C  C1446  1  0.78640000  0.68020000  0.78739000  1.0
  C  C1447  1  0.78760000  0.64870000  0.64769000  1.0
  C  C1448  1  0.79550000  0.65070000  0.61540000  1.0
  C  C1449  1  0.84910000  0.62160000  0.60703000  1.0
  C  C1450  1  0.83700000  0.66590000  0.66355000  1.0
  C  C1451  1  0.76960000  0.59280000  0.65890000  1.0
  C  C1452  1  0.68960000  0.87190000  0.61091000  1.0
  C  C1453  1  0.75140000  0.87810000  0.60181000  1.0
  C  C1454  1  0.75820000  0.92090000  0.57747000  1.0
  C  C1455  1  0.65180000  0.85640000  0.58833000  1.0
  C  C1456  1  0.67430000  0.93060000  0.62160000  1.0
  C  C1457  1  0.43950000  0.86750000  0.94050000  1.0
  C  C1458  1  0.46540000  0.85050000  0.96500000  1.0
  C  C1459  1  0.45500000  0.36320000  0.30125000  1.0
  C  C1460  1  0.47030000  0.34090000  0.33210000  1.0
  C  C1461  1  0.49510000  0.38550000  0.34971000  1.0
  C  C1462  1  0.49470000  0.39880000  0.28867000  1.0
  C  C1463  1  0.39580000  0.39510000  0.30580000  1.0
  C  C1464  1  0.52100000  0.11990000  0.28118000  1.0
  C  C1465  1  0.57370000  0.14640000  0.29291000  1.0
  C  C1466  1  0.60130000  0.11060000  0.31495000  1.0
  C  C1467  1  0.48480000  0.09720000  0.30469000  1.0
  C  C1468  1  0.53240000  0.07940000  0.25741000  1.0
  C  C1469  1  0.31170000  0.17080000  0.31570000  1.0
  C  C1470  1  0.25410000  0.18910000  0.32557000  1.0
  C  C1471  1  0.25020000  0.16800000  0.35919000  1.0
  C  C1472  1  0.32520000  0.10790000  0.31687000  1.0
  C  C1473  1  0.36010000  0.20240000  0.32879000  1.0
  C  C1474  1  0.15610000  0.17290000  0.21307000  1.0
  C  C1475  1  0.13480000  0.12630000  0.22932000  1.0
  C  C1476  1  0.07210000  0.11610000  0.22911000  1.0
  C  C1477  1  0.12610000  0.22340000  0.22210000  1.0
  C  C1478  1  0.34340000  0.01790000  0.23106000  1.0
  C  C1479  1  0.34790000  0.97460000  0.20770000  1.0
  C  C1480  1  0.33590000  0.91580000  0.21840000  1.0
  C  C1481  1  0.38010000  0.00480000  0.25498000  1.0
  C  C1482  1  0.28300000  0.02970000  0.24246000  1.0
  C  C1483  1  0.52370000  0.10700000  0.14870000  1.0
  C  C1484  1  0.54260000  0.05230000  0.16091000  1.0
  C  C1485  1  0.47730000  0.08490000  0.39248000  1.0
  C  C1486  1  0.50190000  0.09810000  0.11820000  1.0
  C  C1487  1  0.56610000  0.14970000  0.15016000  1.0
  C  C1488  1  0.58500000  0.31280000  0.21120000  1.0
  C  C1489  1  0.62490000  0.30360000  0.18520000  1.0
  C  C1490  1  0.68390000  0.32510000  0.19138000  1.0
  C  C1491  1  0.57870000  0.36860000  0.21756000  1.0
  C  C1492  1  0.60080000  0.27790000  0.23641000  1.0
  C  C1493  1  0.44560000  0.29340000  0.09915000  1.0
  C  C1494  1  0.48040000  0.34020000  0.09240000  1.0
  C  C1495  1  0.49940000  0.34810000  0.06118000  1.0
  C  C1496  1  0.47280000  0.24640000  0.08960000  1.0
  C  C1497  1  0.39240000  0.30170000  0.08700000  1.0
  C  C1498  1  0.41670000  0.46240000  0.19436000  1.0
  C  C1499  1  0.37350000  0.50450000  0.19115000  1.0
  C  C1500  1  0.39850000  0.56320000  0.18761000  1.0
  C  C1501  1  0.45370000  0.47300000  0.22261000  1.0
  C  C1502  1  0.45590000  0.45930000  0.16841000  1.0
  C  C1503  1  0.22220000  0.36630000  0.26790000  1.0
  C  C1504  1  0.23840000  0.41860000  0.28099000  1.0
  C  C1505  1  0.69420000  0.05990000  0.44923000  1.0
  C  C1506  1  0.17290000  0.37630000  0.24823000  1.0
  C  C1507  1  0.21360000  0.31980000  0.28739000  1.0
  C  C1508  1  0.21240000  0.35130000  0.14769000  1.0
  C  C1509  1  0.20450000  0.34930000  0.11540000  1.0
  C  C1510  1  0.15090000  0.37840000  0.10703000  1.0
  C  C1511  1  0.16300000  0.33410000  0.16355000  1.0
  C  C1512  1  0.23040000  0.40720000  0.15890000  1.0
  C  C1513  1  0.31040000  0.12810000  0.11091000  1.0
  C  C1514  1  0.24860000  0.12190000  0.10181000  1.0
  C  C1515  1  0.24180000  0.07910000  0.07747000  1.0
  C  C1516  1  0.34820000  0.14360000  0.08833000  1.0
  C  C1517  1  0.32570000  0.06940000  0.12160000  1.0
  C  C1518  1  0.56050000  0.13250000  0.44050000  1.0
  C  C1519  1  0.53460000  0.14950000  0.46500000  1.0
  S  S1520  1  0.69619000  0.56270000  0.22104000  1.0
  S  S1521  1  0.82466000  0.51556000  0.23659000  1.0
  S  S1522  1  0.81193000  0.69026000  0.22288000  1.0
  S  S1523  1  0.81985000  0.77253000  0.28075000  1.0
  S  S1524  1  0.92083000  0.63689000  0.28686000  1.0
  S  S1525  1  0.87316000  0.53198000  0.32720000  1.0
  S  S1526  1  0.71379000  0.48100000  0.30235000  1.0
  S  S1527  1  0.70594000  0.56216000  0.36159000  1.0
  S  S1528  1  0.60252000  0.61926000  0.29843000  1.0
  S  S1529  1  0.65356000  0.71900000  0.25616000  1.0
  S  S1530  1  0.69523000  0.73073000  0.34347000  1.0
  S  S1531  1  0.82565000  0.69005000  0.35924000  1.0
  S  S1532  1  0.30381000  0.43730000  0.72104000  1.0
  S  S1533  1  0.17534000  0.48444000  0.73659000  1.0
  S  S1534  1  0.18807000  0.30974000  0.72288000  1.0
  S  S1535  1  0.18015000  0.22747000  0.78075000  1.0
  S  S1536  1  0.07917000  0.36311000  0.78686000  1.0
  S  S1537  1  0.12684000  0.46802000  0.82720000  1.0
  S  S1538  1  0.28621000  0.51900000  0.80235000  1.0
  S  S1539  1  0.29406000  0.43784000  0.86159000  1.0
  S  S1540  1  0.39748000  0.38074000  0.79843000  1.0
  S  S1541  1  0.34644000  0.28100000  0.75616000  1.0
  S  S1542  1  0.30477000  0.26927000  0.84347000  1.0
  S  S1543  1  0.17435000  0.30995000  0.85924000  1.0
  S  S1544  1  0.93730000  0.19619000  0.47104000  1.0
  S  S1545  1  0.98444000  0.32466000  0.48659000  1.0
  S  S1546  1  0.80974000  0.31193000  0.47288000  1.0
  S  S1547  1  0.72747000  0.31985000  0.53075000  1.0
  S  S1548  1  0.86311000  0.42083000  0.53686000  1.0
  S  S1549  1  0.96802000  0.37316000  0.57720000  1.0
  S  S1550  1  0.01900000  0.21379000  0.55235000  1.0
  S  S1551  1  0.93784000  0.20594000  0.61159000  1.0
  S  S1552  1  0.88074000  0.10252000  0.54843000  1.0
  S  S1553  1  0.78100000  0.15356000  0.50616000  1.0
  S  S1554  1  0.76927000  0.19523000  0.59347000  1.0
  S  S1555  1  0.80995000  0.32565000  0.60924000  1.0
  S  S1556  1  0.06270000  0.80381000  0.97104000  1.0
  S  S1557  1  0.01556000  0.67534000  0.98659000  1.0
  S  S1558  1  0.19026000  0.68807000  0.97288000  1.0
  S  S1559  1  0.27253000  0.68015000  0.03075000  1.0
  S  S1560  1  0.13689000  0.57917000  0.03686000  1.0
  S  S1561  1  0.03198000  0.62684000  0.07720000  1.0
  S  S1562  1  0.98100000  0.78621000  0.05235000  1.0
  S  S1563  1  0.06216000  0.79406000  0.11159000  1.0
  S  S1564  1  0.11926000  0.89748000  0.04843000  1.0
  S  S1565  1  0.21900000  0.84644000  0.00616000  1.0
  S  S1566  1  0.23073000  0.80477000  0.09347000  1.0
  S  S1567  1  0.19005000  0.67435000  0.10924000  1.0
  S  S1568  1  0.80381000  0.06270000  0.02896000  1.0
  S  S1569  1  0.67534000  0.01556000  0.01341000  1.0
  S  S1570  1  0.68807000  0.19026000  0.02712000  1.0
  S  S1571  1  0.68015000  0.27253000  0.96925000  1.0
  S  S1572  1  0.57917000  0.13689000  0.96314000  1.0
  S  S1573  1  0.62684000  0.03198000  0.92280000  1.0
  S  S1574  1  0.78621000  0.98100000  0.94765000  1.0
  S  S1575  1  0.79406000  0.06216000  0.88841000  1.0
  S  S1576  1  0.89748000  0.11926000  0.95157000  1.0
  S  S1577  1  0.84644000  0.21900000  0.99384000  1.0
  S  S1578  1  0.80477000  0.23073000  0.90653000  1.0
  S  S1579  1  0.67435000  0.19005000  0.89076000  1.0
  S  S1580  1  0.19619000  0.93730000  0.52896000  1.0
  S  S1581  1  0.32466000  0.98444000  0.51341000  1.0
  S  S1582  1  0.31193000  0.80974000  0.52712000  1.0
  S  S1583  1  0.31985000  0.72747000  0.46925000  1.0
  S  S1584  1  0.42083000  0.86311000  0.46314000  1.0
  S  S1585  1  0.37316000  0.96802000  0.42280000  1.0
  S  S1586  1  0.21379000  0.01900000  0.44765000  1.0
  S  S1587  1  0.20594000  0.93784000  0.38841000  1.0
  S  S1588  1  0.10252000  0.88074000  0.45157000  1.0
  S  S1589  1  0.15356000  0.78100000  0.49384000  1.0
  S  S1590  1  0.19523000  0.76927000  0.40653000  1.0
  S  S1591  1  0.32565000  0.80995000  0.39076000  1.0
  S  S1592  1  0.56270000  0.69619000  0.77896000  1.0
  S  S1593  1  0.51556000  0.82466000  0.76341000  1.0
  S  S1594  1  0.69026000  0.81193000  0.77712000  1.0
  S  S1595  1  0.77253000  0.81985000  0.71925000  1.0
  S  S1596  1  0.63689000  0.92083000  0.71314000  1.0
  S  S1597  1  0.53198000  0.87316000  0.67280000  1.0
  S  S1598  1  0.48100000  0.71379000  0.69765000  1.0
  S  S1599  1  0.56216000  0.70594000  0.63841000  1.0
  S  S1600  1  0.61926000  0.60252000  0.70157000  1.0
  S  S1601  1  0.71900000  0.65356000  0.74384000  1.0
  S  S1602  1  0.73073000  0.69523000  0.65653000  1.0
  S  S1603  1  0.69005000  0.82565000  0.64076000  1.0
  S  S1604  1  0.43730000  0.30381000  0.27896000  1.0
  S  S1605  1  0.48444000  0.17534000  0.26341000  1.0
  S  S1606  1  0.30974000  0.18807000  0.27712000  1.0
  S  S1607  1  0.22747000  0.18015000  0.21925000  1.0
  S  S1608  1  0.36311000  0.07917000  0.21314000  1.0
  S  S1609  1  0.46802000  0.12684000  0.17280000  1.0
  S  S1610  1  0.51900000  0.28621000  0.19765000  1.0
  S  S1611  1  0.43784000  0.29406000  0.13841000  1.0
  S  S1612  1  0.38074000  0.39748000  0.20157000  1.0
  S  S1613  1  0.28100000  0.34644000  0.24384000  1.0
  S  S1614  1  0.26927000  0.30477000  0.15653000  1.0
  S  S1615  1  0.30995000  0.17435000  0.14076000  1.0
  N  N1616  1  0.70080000  0.48960000  0.17287000  1.0
  N  N1617  1  0.80390000  0.43990000  0.18948000  1.0
  N  N1618  1  0.84230000  0.78820000  0.18983000  1.0
  N  N1619  1  0.86860000  0.84700000  0.24114000  1.0
  N  N1620  1  0.02680000  0.59930000  0.30299000  1.0
  N  N1621  1  0.98720000  0.50410000  0.33572000  1.0
  N  N1622  1  0.66810000  0.39710000  0.33956000  1.0
  N  N1623  1  0.65640000  0.46760000  0.38826000  1.0
  N  N1624  1  0.49590000  0.66270000  0.28201000  1.0
  N  N1625  1  0.54210000  0.74070000  0.24076000  1.0
  N  N1626  1  0.70704000  0.79720000  0.39374000  1.0
  N  N1627  1  0.81930000  0.76390000  0.40480000  1.0
  N  N1628  1  0.29920000  0.51040000  0.67287000  1.0
  N  N1629  1  0.19610000  0.56010000  0.68948000  1.0
  N  N1630  1  0.15770000  0.21180000  0.68983000  1.0
  N  N1631  1  0.13140000  0.15300000  0.74114000  1.0
  N  N1632  1  0.97320000  0.40070000  0.80299000  1.0
  N  N1633  1  0.01280000  0.49590000  0.83572000  1.0
  N  N1634  1  0.33190000  0.60290000  0.83956000  1.0
  N  N1635  1  0.34360000  0.53240000  0.88826000  1.0
  N  N1636  1  0.50410000  0.33730000  0.78201000  1.0
  N  N1637  1  0.45790000  0.25930000  0.74076000  1.0
  N  N1638  1  0.29296000  0.20280000  0.89374000  1.0
  N  N1639  1  0.18070000  0.23610000  0.90480000  1.0
  N  N1640  1  0.01040000  0.20080000  0.42287000  1.0
  N  N1641  1  0.06010000  0.30390000  0.43948000  1.0
  N  N1642  1  0.71180000  0.34230000  0.43983000  1.0
  N  N1643  1  0.65300000  0.36860000  0.49114000  1.0
  N  N1644  1  0.90070000  0.52680000  0.55299000  1.0
  N  N1645  1  0.99590000  0.48720000  0.58572000  1.0
  N  N1646  1  0.10290000  0.16810000  0.58956000  1.0
  N  N1647  1  0.03240000  0.15640000  0.63826000  1.0
  N  N1648  1  0.83730000  0.99590000  0.53201000  1.0
  N  N1649  1  0.75930000  0.04210000  0.49076000  1.0
  N  N1650  1  0.70280000  0.20704000  0.64374000  1.0
  N  N1651  1  0.73610000  0.31930000  0.65480000  1.0
  N  N1652  1  0.98960000  0.79920000  0.92287000  1.0
  N  N1653  1  0.93990000  0.69610000  0.93948000  1.0
  N  N1654  1  0.28820000  0.65770000  0.93983000  1.0
  N  N1655  1  0.34700000  0.63140000  0.99114000  1.0
  N  N1656  1  0.09930000  0.47320000  0.05299000  1.0
  N  N1657  1  0.00410000  0.51280000  0.08572000  1.0
  N  N1658  1  0.89710000  0.83190000  0.08956000  1.0
  N  N1659  1  0.96760000  0.84360000  0.13826000  1.0
  N  N1660  1  0.16270000  0.00410000  0.03201000  1.0
  N  N1661  1  0.24070000  0.95790000  0.99076000  1.0
  N  N1662  1  0.29720000  0.79296000  0.14374000  1.0
  N  N1663  1  0.26390000  0.68070000  0.15480000  1.0
  N  N1664  1  0.79920000  0.98960000  0.07713000  1.0
  N  N1665  1  0.69610000  0.93990000  0.06052000  1.0
  N  N1666  1  0.65770000  0.28820000  0.06017000  1.0
  N  N1667  1  0.63140000  0.34700000  0.00886000  1.0
  N  N1668  1  0.47320000  0.09930000  0.94701000  1.0
  N  N1669  1  0.51280000  0.00410000  0.91428000  1.0
  N  N1670  1  0.83190000  0.89710000  0.91044000  1.0
  N  N1671  1  0.84360000  0.96760000  0.86174000  1.0
  N  N1672  1  0.00410000  0.16270000  0.96799000  1.0
  N  N1673  1  0.95790000  0.24070000  0.00924000  1.0
  N  N1674  1  0.79296000  0.29720000  0.85626000  1.0
  N  N1675  1  0.68070000  0.26390000  0.84520000  1.0
  N  N1676  1  0.20080000  0.01040000  0.57713000  1.0
  N  N1677  1  0.30390000  0.06010000  0.56052000  1.0
  N  N1678  1  0.34230000  0.71180000  0.56017000  1.0
  N  N1679  1  0.36860000  0.65300000  0.50886000  1.0
  N  N1680  1  0.52680000  0.90070000  0.44701000  1.0
  N  N1681  1  0.48720000  0.99590000  0.41428000  1.0
  N  N1682  1  0.16810000  0.10290000  0.41044000  1.0
  N  N1683  1  0.15640000  0.03240000  0.36174000  1.0
  N  N1684  1  0.99590000  0.83730000  0.46799000  1.0
  N  N1685  1  0.04210000  0.75930000  0.50924000  1.0
  N  N1686  1  0.20704000  0.70280000  0.35626000  1.0
  N  N1687  1  0.31930000  0.73610000  0.34520000  1.0
  N  N1688  1  0.48960000  0.70080000  0.82713000  1.0
  N  N1689  1  0.43990000  0.80390000  0.81052000  1.0
  N  N1690  1  0.78820000  0.84230000  0.81017000  1.0
  N  N1691  1  0.84700000  0.86860000  0.75886000  1.0
  N  N1692  1  0.59930000  0.02680000  0.69701000  1.0
  N  N1693  1  0.50410000  0.98720000  0.66428000  1.0
  N  N1694  1  0.39710000  0.66810000  0.66044000  1.0
  N  N1695  1  0.46760000  0.65640000  0.61174000  1.0
  N  N1696  1  0.66270000  0.49590000  0.71799000  1.0
  N  N1697  1  0.74070000  0.54210000  0.75924000  1.0
  N  N1698  1  0.79720000  0.70704000  0.60626000  1.0
  N  N1699  1  0.76390000  0.81930000  0.59520000  1.0
  N  N1700  1  0.51040000  0.29920000  0.32713000  1.0
  N  N1701  1  0.56010000  0.19610000  0.31052000  1.0
  N  N1702  1  0.21180000  0.15770000  0.31017000  1.0
  N  N1703  1  0.15300000  0.13140000  0.25886000  1.0
  N  N1704  1  0.40070000  0.97320000  0.19701000  1.0
  N  N1705  1  0.49590000  0.01280000  0.16428000  1.0
  N  N1706  1  0.60290000  0.33190000  0.16044000  1.0
  N  N1707  1  0.53240000  0.34360000  0.11174000  1.0
  N  N1708  1  0.33730000  0.50410000  0.21799000  1.0
  N  N1709  1  0.25930000  0.45790000  0.25924000  1.0
  N  N1710  1  0.20280000  0.29296000  0.10626000  1.0
  N  N1711  1  0.23610000  0.18070000  0.09520000  1.0
  O  O1712  1  0.60740000  0.46260000  0.14704000  1.0
  O  O1713  1  0.58850000  0.54130000  0.13566000  1.0
  O  O1714  1  0.88273000  0.39500000  0.16129000  1.0
  O  O1715  1  0.93540000  0.37450000  0.20102000  1.0
  O  O1716  1  0.86910000  0.77350000  0.13580000  1.0
  O  O1717  1  0.79840000  0.72900000  0.12416000  1.0
  O  O1718  1  0.85910000  0.95460000  0.25234000  1.0
  O  O1719  1  0.90180000  0.95020000  0.29287000  1.0
  O  O1720  1  0.11425000  0.62740000  0.27258000  1.0
  O  O1721  1  0.10110000  0.71090000  0.27894000  1.0
  O  O1722  1  0.92556000  0.48033000  0.12014000  1.0
  O  O1723  1  0.86882000  0.54534000  0.10647000  1.0
  O  O1724  1  0.63238000  0.30152000  0.31696000  1.0
  O  O1725  1  0.71000000  0.28915000  0.29483000  1.0
  O  O1726  1  0.67170000  0.45220000  0.44518000  1.0
  O  O1727  1  0.63610000  0.53220000  0.45652000  1.0
  O  O1728  1  0.40910000  0.59140000  0.29315000  1.0
  O  O1729  1  0.42500000  0.59210000  0.34000000  1.0
  O  O1730  1  0.98700000  0.33004000  0.04193000  1.0
  O  O1731  1  0.91873000  0.31431000  0.07258000  1.0
  O  O1732  1  0.64590000  0.89042000  0.39690000  1.0
  O  O1733  1  0.56620000  0.84360000  0.39353000  1.0
  O  O1734  1  0.89380000  0.76620000  0.44727000  1.0
  O  O1735  1  0.96230000  0.75570000  0.42194000  1.0
  O  O1736  1  0.91300000  0.43590000  0.06287000  1.0
  O  O1737  1  0.83710000  0.41600000  0.08009000  1.0
  O  O1738  1  0.78780000  0.71320000  0.54620000  1.0
  O  O1739  1  0.39260000  0.53740000  0.64704000  1.0
  O  O1740  1  0.41150000  0.45870000  0.63566000  1.0
  O  O1741  1  0.11727000  0.60500000  0.66129000  1.0
  O  O1742  1  0.06460000  0.62550000  0.70102000  1.0
  O  O1743  1  0.13090000  0.22650000  0.63580000  1.0
  O  O1744  1  0.20160000  0.27100000  0.62416000  1.0
  O  O1745  1  0.14090000  0.04540000  0.75234000  1.0
  O  O1746  1  0.09820000  0.04980000  0.79287000  1.0
  O  O1747  1  0.88575000  0.37260000  0.77258000  1.0
  O  O1748  1  0.89890000  0.28910000  0.77894000  1.0
  O  O1749  1  0.07444000  0.51967000  0.62014000  1.0
  O  O1750  1  0.13118000  0.45466000  0.60647000  1.0
  O  O1751  1  0.36762000  0.69848000  0.81696000  1.0
  O  O1752  1  0.29000000  0.71085000  0.79483000  1.0
  O  O1753  1  0.32830000  0.54780000  0.94518000  1.0
  O  O1754  1  0.36390000  0.46780000  0.95652000  1.0
  O  O1755  1  0.59090000  0.40860000  0.79315000  1.0
  O  O1756  1  0.57500000  0.40790000  0.84000000  1.0
  O  O1757  1  0.01300000  0.66996000  0.54193000  1.0
  O  O1758  1  0.08127000  0.68569000  0.57258000  1.0
  O  O1759  1  0.35410000  0.10958000  0.89690000  1.0
  O  O1760  1  0.43380000  0.15640000  0.89353000  1.0
  O  O1761  1  0.10620000  0.23380000  0.94727000  1.0
  O  O1762  1  0.03770000  0.24430000  0.92194000  1.0
  O  O1763  1  0.08700000  0.56410000  0.56287000  1.0
  O  O1764  1  0.16290000  0.58400000  0.58009000  1.0
  O  O1765  1  0.21220000  0.28680000  0.04620000  1.0
  O  O1766  1  0.03740000  0.10740000  0.39704000  1.0
  O  O1767  1  0.95870000  0.08850000  0.38566000  1.0
  O  O1768  1  0.10500000  0.38273000  0.41129000  1.0
  O  O1769  1  0.12550000  0.43540000  0.45102000  1.0
  O  O1770  1  0.72650000  0.36910000  0.38580000  1.0
  O  O1771  1  0.77100000  0.29840000  0.37416000  1.0
  O  O1772  1  0.54540000  0.35910000  0.50234000  1.0
  O  O1773  1  0.54980000  0.40180000  0.54287000  1.0
  O  O1774  1  0.87260000  0.61425000  0.52258000  1.0
  O  O1775  1  0.78910000  0.60110000  0.52894000  1.0
  O  O1776  1  0.01967000  0.42556000  0.37014000  1.0
  O  O1777  1  0.95466000  0.36882000  0.35647000  1.0
  O  O1778  1  0.19848000  0.13238000  0.56696000  1.0
  O  O1779  1  0.21085000  0.21000000  0.54483000  1.0
  O  O1780  1  0.04780000  0.17170000  0.69518000  1.0
  O  O1781  1  0.96780000  0.13610000  0.70652000  1.0
  O  O1782  1  0.90860000  0.90910000  0.54315000  1.0
  O  O1783  1  0.90790000  0.92500000  0.59000000  1.0
  O  O1784  1  0.16996000  0.48700000  0.29193000  1.0
  O  O1785  1  0.18569000  0.41873000  0.32258000  1.0
  O  O1786  1  0.60958000  0.14590000  0.64690000  1.0
  O  O1787  1  0.65640000  0.06620000  0.64353000  1.0
  O  O1788  1  0.73380000  0.39380000  0.69727000  1.0
  O  O1789  1  0.74430000  0.46230000  0.67194000  1.0
  O  O1790  1  0.06410000  0.41300000  0.31287000  1.0
  O  O1791  1  0.08400000  0.33710000  0.33009000  1.0
  O  O1792  1  0.78680000  0.28780000  0.79620000  1.0
  O  O1793  1  0.96260000  0.89260000  0.89704000  1.0
  O  O1794  1  0.04130000  0.91150000  0.88566000  1.0
  O  O1795  1  0.89500000  0.61727000  0.91129000  1.0
  O  O1796  1  0.87450000  0.56460000  0.95102000  1.0
  O  O1797  1  0.27350000  0.63090000  0.88580000  1.0
  O  O1798  1  0.22900000  0.70160000  0.87416000  1.0
  O  O1799  1  0.45460000  0.64090000  0.00234000  1.0
  O  O1800  1  0.45020000  0.59820000  0.04287000  1.0
  O  O1801  1  0.12740000  0.38575000  0.02258000  1.0
  O  O1802  1  0.21090000  0.39890000  0.02894000  1.0
  O  O1803  1  0.98033000  0.57444000  0.87014000  1.0
  O  O1804  1  0.04534000  0.63118000  0.85647000  1.0
  O  O1805  1  0.80152000  0.86762000  0.06696000  1.0
  O  O1806  1  0.78915000  0.79000000  0.04483000  1.0
  O  O1807  1  0.95220000  0.82830000  0.19518000  1.0
  O  O1808  1  0.03220000  0.86390000  0.20652000  1.0
  O  O1809  1  0.09140000  0.09090000  0.04315000  1.0
  O  O1810  1  0.09210000  0.07500000  0.09000000  1.0
  O  O1811  1  0.83004000  0.51300000  0.79193000  1.0
  O  O1812  1  0.81431000  0.58127000  0.82258000  1.0
  O  O1813  1  0.39042000  0.85410000  0.14690000  1.0
  O  O1814  1  0.34360000  0.93380000  0.14353000  1.0
  O  O1815  1  0.26620000  0.60620000  0.19727000  1.0
  O  O1816  1  0.25570000  0.53770000  0.17194000  1.0
  O  O1817  1  0.93590000  0.58700000  0.81287000  1.0
  O  O1818  1  0.91600000  0.66290000  0.83009000  1.0
  O  O1819  1  0.21320000  0.71220000  0.29620000  1.0
  O  O1820  1  0.89260000  0.96260000  0.10296000  1.0
  O  O1821  1  0.91150000  0.04130000  0.11434000  1.0
  O  O1822  1  0.61727000  0.89500000  0.08871000  1.0
  O  O1823  1  0.56460000  0.87450000  0.04898000  1.0
  O  O1824  1  0.63090000  0.27350000  0.11420000  1.0
  O  O1825  1  0.70160000  0.22900000  0.12584000  1.0
  O  O1826  1  0.64090000  0.45460000  0.99766000  1.0
  O  O1827  1  0.59820000  0.45020000  0.95713000  1.0
  O  O1828  1  0.38575000  0.12740000  0.97742000  1.0
  O  O1829  1  0.39890000  0.21090000  0.97106000  1.0
  O  O1830  1  0.57444000  0.98033000  0.12986000  1.0
  O  O1831  1  0.63118000  0.04534000  0.14353000  1.0
  O  O1832  1  0.86762000  0.80152000  0.93304000  1.0
  O  O1833  1  0.79000000  0.78915000  0.95517000  1.0
  O  O1834  1  0.82830000  0.95220000  0.80482000  1.0
  O  O1835  1  0.86390000  0.03220000  0.79348000  1.0
  O  O1836  1  0.09090000  0.09140000  0.95685000  1.0
  O  O1837  1  0.07500000  0.09210000  0.91000000  1.0
  O  O1838  1  0.51300000  0.83004000  0.20807000  1.0
  O  O1839  1  0.58127000  0.81431000  0.17742000  1.0
  O  O1840  1  0.85410000  0.39042000  0.85310000  1.0
  O  O1841  1  0.93380000  0.34360000  0.85647000  1.0
  O  O1842  1  0.60620000  0.26620000  0.80273000  1.0
  O  O1843  1  0.53770000  0.25570000  0.82806000  1.0
  O  O1844  1  0.58700000  0.93590000  0.18713000  1.0
  O  O1845  1  0.66290000  0.91600000  0.16991000  1.0
  O  O1846  1  0.71220000  0.21320000  0.70380000  1.0
  O  O1847  1  0.10740000  0.03740000  0.60296000  1.0
  O  O1848  1  0.08850000  0.95870000  0.61434000  1.0
  O  O1849  1  0.38273000  0.10500000  0.58871000  1.0
  O  O1850  1  0.43540000  0.12550000  0.54898000  1.0
  O  O1851  1  0.36910000  0.72650000  0.61420000  1.0
  O  O1852  1  0.29840000  0.77100000  0.62584000  1.0
  O  O1853  1  0.35910000  0.54540000  0.49766000  1.0
  O  O1854  1  0.40180000  0.54980000  0.45713000  1.0
  O  O1855  1  0.61425000  0.87260000  0.47742000  1.0
  O  O1856  1  0.60110000  0.78910000  0.47106000  1.0
  O  O1857  1  0.42556000  0.01967000  0.62986000  1.0
  O  O1858  1  0.36882000  0.95466000  0.64353000  1.0
  O  O1859  1  0.13238000  0.19848000  0.43304000  1.0
  O  O1860  1  0.21000000  0.21085000  0.45517000  1.0
  O  O1861  1  0.17170000  0.04780000  0.30482000  1.0
  O  O1862  1  0.13610000  0.96780000  0.29348000  1.0
  O  O1863  1  0.90910000  0.90860000  0.45685000  1.0
  O  O1864  1  0.92500000  0.90790000  0.41000000  1.0
  O  O1865  1  0.48700000  0.16996000  0.70807000  1.0
  O  O1866  1  0.41873000  0.18569000  0.67742000  1.0
  O  O1867  1  0.14590000  0.60958000  0.35310000  1.0
  O  O1868  1  0.06620000  0.65640000  0.35647000  1.0
  O  O1869  1  0.39380000  0.73380000  0.30273000  1.0
  O  O1870  1  0.46230000  0.74430000  0.32806000  1.0
  O  O1871  1  0.41300000  0.06410000  0.68713000  1.0
  O  O1872  1  0.33710000  0.08400000  0.66991000  1.0
  O  O1873  1  0.28780000  0.78680000  0.20380000  1.0
  O  O1874  1  0.46260000  0.60740000  0.85296000  1.0
  O  O1875  1  0.54130000  0.58850000  0.86434000  1.0
  O  O1876  1  0.39500000  0.88273000  0.83871000  1.0
  O  O1877  1  0.37450000  0.93540000  0.79898000  1.0
  O  O1878  1  0.77350000  0.86910000  0.86420000  1.0
  O  O1879  1  0.72900000  0.79840000  0.87584000  1.0
  O  O1880  1  0.95460000  0.85910000  0.74766000  1.0
  O  O1881  1  0.95020000  0.90180000  0.70713000  1.0
  O  O1882  1  0.62740000  0.11425000  0.72742000  1.0
  O  O1883  1  0.71090000  0.10110000  0.72106000  1.0
  O  O1884  1  0.48033000  0.92556000  0.87986000  1.0
  O  O1885  1  0.54534000  0.86882000  0.89353000  1.0
  O  O1886  1  0.30152000  0.63238000  0.68304000  1.0
  O  O1887  1  0.28915000  0.71000000  0.70517000  1.0
  O  O1888  1  0.45220000  0.67170000  0.55482000  1.0
  O  O1889  1  0.53220000  0.63610000  0.54348000  1.0
  O  O1890  1  0.59140000  0.40910000  0.70685000  1.0
  O  O1891  1  0.59210000  0.42500000  0.66000000  1.0
  O  O1892  1  0.33004000  0.98700000  0.95807000  1.0
  O  O1893  1  0.31431000  0.91873000  0.92742000  1.0
  O  O1894  1  0.89042000  0.64590000  0.60310000  1.0
  O  O1895  1  0.84360000  0.56620000  0.60647000  1.0
  O  O1896  1  0.76620000  0.89380000  0.55273000  1.0
  O  O1897  1  0.75570000  0.96230000  0.57806000  1.0
  O  O1898  1  0.43590000  0.91300000  0.93713000  1.0
  O  O1899  1  0.41600000  0.83710000  0.91991000  1.0
  O  O1900  1  0.71320000  0.78780000  0.45380000  1.0
  O  O1901  1  0.53740000  0.39260000  0.35296000  1.0
  O  O1902  1  0.45870000  0.41150000  0.36434000  1.0
  O  O1903  1  0.60500000  0.11727000  0.33871000  1.0
  O  O1904  1  0.62550000  0.06460000  0.29898000  1.0
  O  O1905  1  0.22650000  0.13090000  0.36420000  1.0
  O  O1906  1  0.27100000  0.20160000  0.37584000  1.0
  O  O1907  1  0.04540000  0.14090000  0.24766000  1.0
  O  O1908  1  0.04980000  0.09820000  0.20713000  1.0
  O  O1909  1  0.37260000  0.88575000  0.22742000  1.0
  O  O1910  1  0.28910000  0.89890000  0.22106000  1.0
  O  O1911  1  0.51967000  0.07444000  0.37986000  1.0
  O  O1912  1  0.45466000  0.13118000  0.39353000  1.0
  O  O1913  1  0.69848000  0.36762000  0.18304000  1.0
  O  O1914  1  0.71085000  0.29000000  0.20517000  1.0
  O  O1915  1  0.54780000  0.32830000  0.05482000  1.0
  O  O1916  1  0.46780000  0.36390000  0.04348000  1.0
  O  O1917  1  0.40860000  0.59090000  0.20685000  1.0
  O  O1918  1  0.40790000  0.57500000  0.16000000  1.0
  O  O1919  1  0.66996000  0.01300000  0.45807000  1.0
  O  O1920  1  0.68569000  0.08127000  0.42742000  1.0
  O  O1921  1  0.10958000  0.35410000  0.10310000  1.0
  O  O1922  1  0.15640000  0.43380000  0.10647000  1.0
  O  O1923  1  0.23380000  0.10620000  0.05273000  1.0
  O  O1924  1  0.24430000  0.03770000  0.07806000  1.0
  O  O1925  1  0.56410000  0.08700000  0.43713000  1.0
  O  O1926  1  0.58400000  0.16290000  0.41991000  1.0
  O  O1927  1  0.28680000  0.21220000  0.95380000  1.0
  O  O1928  1  0.95940000  0.04060000  0.25000000  1.0
  O  O1929  1  0.04060000  0.95940000  0.75000000  1.0
  O  O1930  1  0.45940000  0.45940000  0.50000000  1.0
  O  O1931  1  0.54060000  0.54060000  0.00000000  1.0
