# generated using pymatgen
data_MnH14(C13O2)2
_symmetry_space_group_name_H-M   'P 1'
_cell_length_a   33.51180000
_cell_length_b   33.51180000
_cell_length_c   33.51180000
_cell_angle_alpha   90.00000000
_cell_angle_beta   90.00000000
_cell_angle_gamma   90.00000000
_symmetry_Int_Tables_number   1
_chemical_formula_structural   MnH14(C13O2)2
_chemical_formula_sum   'Mn24 H336 C624 O96'
_cell_volume   37635.11664526
_cell_formula_units_Z   24
loop_
 _symmetry_equiv_pos_site_id
 _symmetry_equiv_pos_as_xyz
  1  'x, y, z'
loop_
 _atom_site_type_symbol
 _atom_site_label
 _atom_site_symmetry_multiplicity
 _atom_site_fract_x
 _atom_site_fract_y
 _atom_site_fract_z
 _atom_site_occupancy
  Mn  Mn0  1  0.95106000  0.25000000  0.75000000  1.0
  Mn  Mn1  1  0.75000000  0.54894000  0.25000000  1.0
  Mn  Mn2  1  0.45106000  0.25000000  0.75000000  1.0
  Mn  Mn3  1  0.25000000  0.75000000  0.45106000  1.0
  Mn  Mn4  1  0.04894000  0.25000000  0.75000000  1.0
  Mn  Mn5  1  0.25000000  0.75000000  0.95106000  1.0
  Mn  Mn6  1  0.75000000  0.95106000  0.25000000  1.0
  Mn  Mn7  1  0.75000000  0.04894000  0.25000000  1.0
  Mn  Mn8  1  0.75000000  0.45106000  0.25000000  1.0
  Mn  Mn9  1  0.25000000  0.75000000  0.04894000  1.0
  Mn  Mn10  1  0.25000000  0.75000000  0.54894000  1.0
  Mn  Mn11  1  0.54894000  0.25000000  0.75000000  1.0
  Mn  Mn12  1  0.25000000  0.54894000  0.75000000  1.0
  Mn  Mn13  1  0.25000000  0.04894000  0.75000000  1.0
  Mn  Mn14  1  0.25000000  0.95106000  0.75000000  1.0
  Mn  Mn15  1  0.95106000  0.75000000  0.25000000  1.0
  Mn  Mn16  1  0.25000000  0.45106000  0.75000000  1.0
  Mn  Mn17  1  0.45106000  0.75000000  0.25000000  1.0
  Mn  Mn18  1  0.75000000  0.25000000  0.95106000  1.0
  Mn  Mn19  1  0.54894000  0.75000000  0.25000000  1.0
  Mn  Mn20  1  0.04894000  0.75000000  0.25000000  1.0
  Mn  Mn21  1  0.75000000  0.25000000  0.04894000  1.0
  Mn  Mn22  1  0.75000000  0.25000000  0.54894000  1.0
  Mn  Mn23  1  0.75000000  0.25000000  0.45106000  1.0
  H  H24  1  0.40900000  0.86620000  0.90040000  1.0
  H  H25  1  0.32380000  0.64650000  0.94580000  1.0
  H  H26  1  0.40910000  0.53640000  0.09730000  1.0
  H  H27  1  0.82550000  0.93540000  0.35690000  1.0
  H  H28  1  0.02310000  0.03950000  0.59430000  1.0
  H  H29  1  0.35350000  0.67620000  0.44580000  1.0
  H  H30  1  0.52740000  0.58280000  0.48520000  1.0
  H  H31  1  0.96050000  0.52310000  0.40570000  1.0
  H  H32  1  0.02740000  0.51480000  0.41720000  1.0
  H  H33  1  0.53950000  0.52310000  0.09430000  1.0
  H  H34  1  0.01480000  0.52740000  0.91720000  1.0
  H  H35  1  0.59100000  0.09960000  0.36620000  1.0
  H  H36  1  0.46360000  0.59090000  0.59730000  1.0
  H  H37  1  0.51480000  0.08280000  0.47260000  1.0
  H  H38  1  0.08920000  0.63820000  0.05740000  1.0
  H  H39  1  0.03640000  0.90910000  0.59730000  1.0
  H  H40  1  0.03950000  0.90570000  0.47690000  1.0
  H  H41  1  0.59430000  0.47690000  0.46050000  1.0
  H  H42  1  0.05740000  0.41080000  0.86180000  1.0
  H  H43  1  0.93540000  0.14310000  0.67450000  1.0
  H  H44  1  0.44580000  0.35350000  0.67620000  1.0
  H  H45  1  0.64650000  0.94580000  0.32380000  1.0
  H  H46  1  0.40910000  0.96360000  0.40270000  1.0
  H  H47  1  0.36180000  0.91080000  0.55740000  1.0
  H  H48  1  0.09730000  0.40910000  0.53640000  1.0
  H  H49  1  0.86620000  0.90040000  0.40900000  1.0
  H  H50  1  0.13820000  0.58920000  0.55740000  1.0
  H  H51  1  0.40270000  0.40910000  0.96360000  1.0
  H  H52  1  0.64310000  0.43540000  0.17450000  1.0
  H  H53  1  0.13820000  0.91080000  0.94260000  1.0
  H  H54  1  0.58920000  0.55740000  0.13820000  1.0
  H  H55  1  0.14310000  0.67450000  0.93540000  1.0
  H  H56  1  0.67620000  0.05420000  0.14650000  1.0
  H  H57  1  0.03950000  0.59430000  0.02310000  1.0
  H  H58  1  0.09960000  0.13380000  0.90900000  1.0
  H  H59  1  0.86180000  0.44260000  0.08920000  1.0
  H  H60  1  0.02740000  0.98520000  0.08280000  1.0
  H  H61  1  0.94260000  0.36180000  0.58920000  1.0
  H  H62  1  0.97260000  0.58280000  0.01480000  1.0
  H  H63  1  0.40900000  0.63380000  0.59960000  1.0
  H  H64  1  0.59730000  0.46360000  0.59090000  1.0
  H  H65  1  0.67450000  0.93540000  0.14310000  1.0
  H  H66  1  0.90040000  0.40900000  0.86620000  1.0
  H  H67  1  0.47260000  0.51480000  0.08280000  1.0
  H  H68  1  0.90570000  0.47690000  0.03950000  1.0
  H  H69  1  0.46360000  0.90910000  0.90270000  1.0
  H  H70  1  0.06460000  0.17450000  0.85690000  1.0
  H  H71  1  0.85350000  0.55420000  0.32380000  1.0
  H  H72  1  0.09430000  0.96050000  0.97690000  1.0
  H  H73  1  0.82550000  0.56460000  0.14310000  1.0
  H  H74  1  0.97690000  0.09430000  0.96050000  1.0
  H  H75  1  0.05740000  0.08920000  0.63820000  1.0
  H  H76  1  0.35690000  0.67450000  0.56460000  1.0
  H  H77  1  0.59430000  0.02310000  0.03950000  1.0
  H  H78  1  0.55740000  0.36180000  0.91080000  1.0
  H  H79  1  0.56460000  0.35690000  0.67450000  1.0
  H  H80  1  0.91080000  0.94260000  0.13820000  1.0
  H  H81  1  0.46050000  0.59430000  0.47690000  1.0
  H  H82  1  0.59960000  0.40900000  0.63380000  1.0
  H  H83  1  0.90900000  0.40040000  0.36620000  1.0
  H  H84  1  0.43540000  0.32550000  0.85690000  1.0
  H  H85  1  0.96050000  0.97690000  0.09430000  1.0
  H  H86  1  0.85350000  0.94580000  0.17620000  1.0
  H  H87  1  0.59090000  0.90270000  0.03640000  1.0
  H  H88  1  0.02310000  0.46050000  0.90570000  1.0
  H  H89  1  0.90910000  0.59730000  0.03640000  1.0
  H  H90  1  0.94580000  0.17620000  0.85350000  1.0
  H  H91  1  0.13380000  0.90900000  0.09960000  1.0
  H  H92  1  0.17450000  0.85690000  0.06460000  1.0
  H  H93  1  0.09730000  0.09090000  0.96360000  1.0
  H  H94  1  0.86620000  0.59960000  0.09100000  1.0
  H  H95  1  0.64650000  0.55420000  0.17620000  1.0
  H  H96  1  0.47690000  0.46050000  0.59430000  1.0
  H  H97  1  0.63820000  0.05740000  0.08920000  1.0
  H  H98  1  0.55740000  0.13820000  0.58920000  1.0
  H  H99  1  0.59730000  0.03640000  0.90910000  1.0
  H  H100  1  0.13380000  0.59100000  0.40040000  1.0
  H  H101  1  0.09430000  0.53950000  0.52310000  1.0
  H  H102  1  0.14650000  0.82380000  0.44580000  1.0
  H  H103  1  0.63380000  0.59960000  0.40900000  1.0
  H  H104  1  0.32550000  0.64310000  0.06460000  1.0
  H  H105  1  0.03640000  0.59090000  0.90270000  1.0
  H  H106  1  0.97260000  0.91720000  0.48520000  1.0
  H  H107  1  0.14310000  0.82550000  0.56460000  1.0
  H  H108  1  0.48520000  0.97260000  0.91720000  1.0
  H  H109  1  0.17620000  0.85350000  0.94580000  1.0
  H  H110  1  0.67620000  0.44580000  0.35350000  1.0
  H  H111  1  0.17620000  0.64650000  0.55420000  1.0
  H  H112  1  0.56460000  0.14310000  0.82550000  1.0
  H  H113  1  0.90270000  0.46360000  0.90910000  1.0
  H  H114  1  0.32380000  0.85350000  0.55420000  1.0
  H  H115  1  0.44260000  0.08920000  0.86180000  1.0
  H  H116  1  0.51480000  0.41720000  0.02740000  1.0
  H  H117  1  0.90040000  0.09100000  0.63380000  1.0
  H  H118  1  0.91720000  0.01480000  0.52740000  1.0
  H  H119  1  0.59100000  0.40040000  0.13380000  1.0
  H  H120  1  0.01480000  0.97260000  0.58280000  1.0
  H  H121  1  0.96360000  0.09730000  0.09090000  1.0
  H  H122  1  0.44580000  0.14650000  0.82380000  1.0
  H  H123  1  0.14650000  0.67620000  0.05420000  1.0
  H  H124  1  0.63380000  0.90040000  0.09100000  1.0
  H  H125  1  0.90270000  0.03640000  0.59090000  1.0
  H  H126  1  0.05420000  0.35350000  0.82380000  1.0
  H  H127  1  0.36180000  0.58920000  0.94260000  1.0
  H  H128  1  0.86180000  0.05740000  0.41080000  1.0
  H  H129  1  0.55420000  0.17620000  0.64650000  1.0
  H  H130  1  0.98520000  0.41720000  0.47260000  1.0
  H  H131  1  0.55420000  0.32380000  0.85350000  1.0
  H  H132  1  0.36620000  0.90900000  0.40040000  1.0
  H  H133  1  0.52740000  0.91720000  0.01480000  1.0
  H  H134  1  0.85690000  0.43540000  0.32550000  1.0
  H  H135  1  0.98520000  0.08280000  0.02740000  1.0
  H  H136  1  0.96360000  0.40270000  0.40910000  1.0
  H  H137  1  0.91080000  0.55740000  0.36180000  1.0
  H  H138  1  0.09100000  0.86620000  0.59960000  1.0
  H  H139  1  0.09090000  0.96360000  0.09730000  1.0
  H  H140  1  0.47690000  0.03950000  0.90570000  1.0
  H  H141  1  0.44260000  0.41080000  0.63820000  1.0
  H  H142  1  0.41720000  0.02740000  0.51480000  1.0
  H  H143  1  0.09090000  0.53640000  0.40270000  1.0
  H  H144  1  0.40040000  0.13380000  0.59100000  1.0
  H  H145  1  0.52310000  0.40570000  0.96050000  1.0
  H  H146  1  0.82380000  0.44580000  0.14650000  1.0
  H  H147  1  0.94580000  0.32380000  0.64650000  1.0
  H  H148  1  0.90910000  0.90270000  0.46360000  1.0
  H  H149  1  0.58280000  0.48520000  0.52740000  1.0
  H  H150  1  0.91720000  0.48520000  0.97260000  1.0
  H  H151  1  0.58920000  0.94260000  0.36180000  1.0
  H  H152  1  0.40570000  0.96050000  0.52310000  1.0
  H  H153  1  0.08280000  0.02740000  0.98520000  1.0
  H  H154  1  0.58280000  0.01480000  0.97260000  1.0
  H  H155  1  0.82380000  0.05420000  0.35350000  1.0
  H  H156  1  0.36620000  0.59100000  0.09960000  1.0
  H  H157  1  0.67450000  0.56460000  0.35690000  1.0
  H  H158  1  0.46050000  0.90570000  0.02310000  1.0
  H  H159  1  0.94260000  0.13820000  0.91080000  1.0
  H  H160  1  0.41720000  0.47260000  0.98520000  1.0
  H  H161  1  0.47260000  0.98520000  0.41720000  1.0
  H  H162  1  0.08280000  0.47260000  0.51480000  1.0
  H  H163  1  0.40570000  0.53950000  0.97690000  1.0
  H  H164  1  0.06460000  0.32550000  0.64310000  1.0
  H  H165  1  0.09960000  0.36620000  0.59100000  1.0
  H  H166  1  0.40040000  0.36620000  0.90900000  1.0
  H  H167  1  0.35690000  0.82550000  0.93540000  1.0
  H  H168  1  0.08920000  0.86180000  0.44260000  1.0
  H  H169  1  0.40270000  0.09090000  0.53640000  1.0
  H  H170  1  0.52310000  0.09430000  0.53950000  1.0
  H  H171  1  0.41080000  0.86180000  0.05740000  1.0
  H  H172  1  0.48520000  0.52740000  0.58280000  1.0
  H  H173  1  0.85690000  0.06460000  0.17450000  1.0
  H  H174  1  0.32550000  0.85690000  0.43540000  1.0
  H  H175  1  0.09100000  0.63380000  0.90040000  1.0
  H  H176  1  0.93540000  0.35690000  0.82550000  1.0
  H  H177  1  0.17450000  0.64310000  0.43540000  1.0
  H  H178  1  0.97690000  0.40570000  0.53950000  1.0
  H  H179  1  0.64310000  0.06460000  0.32550000  1.0
  H  H180  1  0.90900000  0.09960000  0.13380000  1.0
  H  H181  1  0.53640000  0.09730000  0.40910000  1.0
  H  H182  1  0.41080000  0.63820000  0.44260000  1.0
  H  H183  1  0.35350000  0.82380000  0.05420000  1.0
  H  H184  1  0.63820000  0.44260000  0.41080000  1.0
  H  H185  1  0.59090000  0.59730000  0.46360000  1.0
  H  H186  1  0.05420000  0.14650000  0.67620000  1.0
  H  H187  1  0.90570000  0.02310000  0.46050000  1.0
  H  H188  1  0.53950000  0.97690000  0.40570000  1.0
  H  H189  1  0.53640000  0.40270000  0.09090000  1.0
  H  H190  1  0.59960000  0.09100000  0.86620000  1.0
  H  H191  1  0.43540000  0.17450000  0.64310000  1.0
  H  H192  1  0.17620000  0.94580000  0.64650000  1.0
  H  H193  1  0.90910000  0.46360000  0.59730000  1.0
  H  H194  1  0.35350000  0.44580000  0.82380000  1.0
  H  H195  1  0.13820000  0.94260000  0.58920000  1.0
  H  H196  1  0.32550000  0.06460000  0.85690000  1.0
  H  H197  1  0.06460000  0.64310000  0.17450000  1.0
  H  H198  1  0.40900000  0.59960000  0.86620000  1.0
  H  H199  1  0.90570000  0.03950000  0.02310000  1.0
  H  H200  1  0.82380000  0.35350000  0.44580000  1.0
  H  H201  1  0.53640000  0.09090000  0.09730000  1.0
  H  H202  1  0.09090000  0.09730000  0.53640000  1.0
  H  H203  1  0.90270000  0.59090000  0.46360000  1.0
  H  H204  1  0.40270000  0.53640000  0.40910000  1.0
  H  H205  1  0.40900000  0.90040000  0.63380000  1.0
  H  H206  1  0.05420000  0.82380000  0.14650000  1.0
  H  H207  1  0.35690000  0.56460000  0.82550000  1.0
  H  H208  1  0.56460000  0.67450000  0.14310000  1.0
  H  H209  1  0.36620000  0.40040000  0.59100000  1.0
  H  H210  1  0.03640000  0.90270000  0.90910000  1.0
  H  H211  1  0.63820000  0.41080000  0.05740000  1.0
  H  H212  1  0.82380000  0.14650000  0.05420000  1.0
  H  H213  1  0.46050000  0.02310000  0.59430000  1.0
  H  H214  1  0.02310000  0.59430000  0.46050000  1.0
  H  H215  1  0.47690000  0.90570000  0.46050000  1.0
  H  H216  1  0.48520000  0.58280000  0.97260000  1.0
  H  H217  1  0.03950000  0.02310000  0.90570000  1.0
  H  H218  1  0.03640000  0.59730000  0.59090000  1.0
  H  H219  1  0.40270000  0.96360000  0.09090000  1.0
  H  H220  1  0.96050000  0.09430000  0.52310000  1.0
  H  H221  1  0.35690000  0.93540000  0.67450000  1.0
  H  H222  1  0.59100000  0.13380000  0.09960000  1.0
  H  H223  1  0.05740000  0.63820000  0.41080000  1.0
  H  H224  1  0.53950000  0.40570000  0.52310000  1.0
  H  H225  1  0.05420000  0.67620000  0.35350000  1.0
  H  H226  1  0.58920000  0.36180000  0.55740000  1.0
  H  H227  1  0.01480000  0.58280000  0.52740000  1.0
  H  H228  1  0.09100000  0.59960000  0.63380000  1.0
  H  H229  1  0.09430000  0.52310000  0.96050000  1.0
  H  H230  1  0.97260000  0.01480000  0.91720000  1.0
  H  H231  1  0.40570000  0.52310000  0.53950000  1.0
  H  H232  1  0.55740000  0.58920000  0.36180000  1.0
  H  H233  1  0.44260000  0.86180000  0.41080000  1.0
  H  H234  1  0.47690000  0.59430000  0.03950000  1.0
  H  H235  1  0.13380000  0.40040000  0.90900000  1.0
  H  H236  1  0.91080000  0.36180000  0.94260000  1.0
  H  H237  1  0.58920000  0.13820000  0.94260000  1.0
  H  H238  1  0.36620000  0.09960000  0.90900000  1.0
  H  H239  1  0.82550000  0.14310000  0.93540000  1.0
  H  H240  1  0.47260000  0.08280000  0.98520000  1.0
  H  H241  1  0.94580000  0.64650000  0.17620000  1.0
  H  H242  1  0.59090000  0.03640000  0.59730000  1.0
  H  H243  1  0.91720000  0.97260000  0.01480000  1.0
  H  H244  1  0.59100000  0.36620000  0.40040000  1.0
  H  H245  1  0.17620000  0.55420000  0.85350000  1.0
  H  H246  1  0.59960000  0.86620000  0.40900000  1.0
  H  H247  1  0.43540000  0.85690000  0.17450000  1.0
  H  H248  1  0.98520000  0.02740000  0.41720000  1.0
  H  H249  1  0.86620000  0.40900000  0.59960000  1.0
  H  H250  1  0.93540000  0.82550000  0.14310000  1.0
  H  H251  1  0.97260000  0.48520000  0.58280000  1.0
  H  H252  1  0.36180000  0.55740000  0.58920000  1.0
  H  H253  1  0.44580000  0.82380000  0.35350000  1.0
  H  H254  1  0.08920000  0.44260000  0.63820000  1.0
  H  H255  1  0.59430000  0.46050000  0.02310000  1.0
  H  H256  1  0.91080000  0.13820000  0.55740000  1.0
  H  H257  1  0.90570000  0.46050000  0.47690000  1.0
  H  H258  1  0.52310000  0.53950000  0.40570000  1.0
  H  H259  1  0.64310000  0.17450000  0.06460000  1.0
  H  H260  1  0.46360000  0.59730000  0.90910000  1.0
  H  H261  1  0.52740000  0.01480000  0.58280000  1.0
  H  H262  1  0.14310000  0.93540000  0.82550000  1.0
  H  H263  1  0.82550000  0.35690000  0.56460000  1.0
  H  H264  1  0.67620000  0.35350000  0.05420000  1.0
  H  H265  1  0.09430000  0.97690000  0.53950000  1.0
  H  H266  1  0.58280000  0.97260000  0.48520000  1.0
  H  H267  1  0.32550000  0.43540000  0.64310000  1.0
  H  H268  1  0.55420000  0.64650000  0.32380000  1.0
  H  H269  1  0.40570000  0.97690000  0.96050000  1.0
  H  H270  1  0.55420000  0.85350000  0.17620000  1.0
  H  H271  1  0.97690000  0.96050000  0.40570000  1.0
  H  H272  1  0.90910000  0.03640000  0.90270000  1.0
  H  H273  1  0.09100000  0.90040000  0.86620000  1.0
  H  H274  1  0.59090000  0.46360000  0.90270000  1.0
  H  H275  1  0.06460000  0.85690000  0.32550000  1.0
  H  H276  1  0.53640000  0.40910000  0.40270000  1.0
  H  H277  1  0.53950000  0.09430000  0.97690000  1.0
  H  H278  1  0.59730000  0.90910000  0.46360000  1.0
  H  H279  1  0.63380000  0.40900000  0.90040000  1.0
  H  H280  1  0.05740000  0.86180000  0.08920000  1.0
  H  H281  1  0.01480000  0.91720000  0.97260000  1.0
  H  H282  1  0.51480000  0.02740000  0.08280000  1.0
  H  H283  1  0.52740000  0.48520000  0.91720000  1.0
  H  H284  1  0.94260000  0.91080000  0.36180000  1.0
  H  H285  1  0.97690000  0.53950000  0.09430000  1.0
  H  H286  1  0.14310000  0.56460000  0.67450000  1.0
  H  H287  1  0.90040000  0.86620000  0.09100000  1.0
  H  H288  1  0.41080000  0.44260000  0.86180000  1.0
  H  H289  1  0.03950000  0.47690000  0.59430000  1.0
  H  H290  1  0.35350000  0.05420000  0.67620000  1.0
  H  H291  1  0.02310000  0.90570000  0.03950000  1.0
  H  H292  1  0.46360000  0.90270000  0.59090000  1.0
  H  H293  1  0.08280000  0.98520000  0.47260000  1.0
  H  H294  1  0.13820000  0.55740000  0.91080000  1.0
  H  H295  1  0.59430000  0.03950000  0.47690000  1.0
  H  H296  1  0.44260000  0.63820000  0.08920000  1.0
  H  H297  1  0.32380000  0.55420000  0.64650000  1.0
  H  H298  1  0.41720000  0.98520000  0.02740000  1.0
  H  H299  1  0.86180000  0.08920000  0.05740000  1.0
  H  H300  1  0.09090000  0.40270000  0.96360000  1.0
  H  H301  1  0.90270000  0.90910000  0.03640000  1.0
  H  H302  1  0.93540000  0.67450000  0.35690000  1.0
  H  H303  1  0.86180000  0.41080000  0.44260000  1.0
  H  H304  1  0.41720000  0.51480000  0.47260000  1.0
  H  H305  1  0.94260000  0.58920000  0.13820000  1.0
  H  H306  1  0.63380000  0.09100000  0.59960000  1.0
  H  H307  1  0.02740000  0.08280000  0.51480000  1.0
  H  H308  1  0.14650000  0.44580000  0.67620000  1.0
  H  H309  1  0.55740000  0.91080000  0.13820000  1.0
  H  H310  1  0.90900000  0.13380000  0.40040000  1.0
  H  H311  1  0.17450000  0.43540000  0.85690000  1.0
  H  H312  1  0.90900000  0.36620000  0.09960000  1.0
  H  H313  1  0.85350000  0.17620000  0.55420000  1.0
  H  H314  1  0.64310000  0.32550000  0.43540000  1.0
  H  H315  1  0.67620000  0.14650000  0.44580000  1.0
  H  H316  1  0.67450000  0.35690000  0.93540000  1.0
  H  H317  1  0.08920000  0.05740000  0.86180000  1.0
  H  H318  1  0.13380000  0.09960000  0.59100000  1.0
  H  H319  1  0.40040000  0.90900000  0.13380000  1.0
  H  H320  1  0.02740000  0.41720000  0.98520000  1.0
  H  H321  1  0.85690000  0.32550000  0.06460000  1.0
  H  H322  1  0.51480000  0.47260000  0.41720000  1.0
  H  H323  1  0.09730000  0.53640000  0.09090000  1.0
  H  H324  1  0.17450000  0.06460000  0.64310000  1.0
  H  H325  1  0.09960000  0.59100000  0.13380000  1.0
  H  H326  1  0.44580000  0.67620000  0.14650000  1.0
  H  H327  1  0.09730000  0.96360000  0.40910000  1.0
  H  H328  1  0.40910000  0.09730000  0.96360000  1.0
  H  H329  1  0.96360000  0.40910000  0.09730000  1.0
  H  H330  1  0.36180000  0.94260000  0.91080000  1.0
  H  H331  1  0.63820000  0.08920000  0.44260000  1.0
  H  H332  1  0.47260000  0.41720000  0.51480000  1.0
  H  H333  1  0.59960000  0.63380000  0.09100000  1.0
  H  H334  1  0.96360000  0.09090000  0.40270000  1.0
  H  H335  1  0.40910000  0.40270000  0.53640000  1.0
  H  H336  1  0.48520000  0.91720000  0.52740000  1.0
  H  H337  1  0.64650000  0.32380000  0.55420000  1.0
  H  H338  1  0.56460000  0.82550000  0.35690000  1.0
  H  H339  1  0.32380000  0.94580000  0.85350000  1.0
  H  H340  1  0.52310000  0.96050000  0.09430000  1.0
  H  H341  1  0.90040000  0.63380000  0.40900000  1.0
  H  H342  1  0.58280000  0.52740000  0.01480000  1.0
  H  H343  1  0.98520000  0.47260000  0.08280000  1.0
  H  H344  1  0.41080000  0.05740000  0.63820000  1.0
  H  H345  1  0.09960000  0.90900000  0.36620000  1.0
  H  H346  1  0.40040000  0.59100000  0.36620000  1.0
  H  H347  1  0.08280000  0.51480000  0.02740000  1.0
  H  H348  1  0.59730000  0.59090000  0.03640000  1.0
  H  H349  1  0.85350000  0.32380000  0.94580000  1.0
  H  H350  1  0.43540000  0.64310000  0.32550000  1.0
  H  H351  1  0.14650000  0.05420000  0.82380000  1.0
  H  H352  1  0.96050000  0.40570000  0.97690000  1.0
  H  H353  1  0.46050000  0.47690000  0.90570000  1.0
  H  H354  1  0.94580000  0.85350000  0.32380000  1.0
  H  H355  1  0.64650000  0.17620000  0.94580000  1.0
  H  H356  1  0.85690000  0.17450000  0.43540000  1.0
  H  H357  1  0.86620000  0.09100000  0.90040000  1.0
  H  H358  1  0.67450000  0.14310000  0.56460000  1.0
  H  H359  1  0.91720000  0.52740000  0.48520000  1.0
  C  C360  1  0.91097000  0.96397000  0.46783000  1.0
  C  C361  1  0.03217000  0.58903000  0.96397000  1.0
  C  C362  1  0.39734000  0.95017000  0.49838000  1.0
  C  C363  1  0.92531000  0.41940000  0.87384000  1.0
  C  C364  1  0.49788000  0.12900000  0.58328000  1.0
  C  C365  1  0.99373000  0.35027000  0.82099000  1.0
  C  C366  1  0.03994000  0.16640000  0.86746000  1.0
  C  C367  1  0.13405000  0.66767000  0.03055000  1.0
  C  C368  1  0.56006000  0.53373000  0.50077000  1.0
  C  C369  1  0.13405000  0.83233000  0.46945000  1.0
  C  C370  1  0.36746000  0.66640000  0.53994000  1.0
  C  C371  1  0.85891000  0.96086000  0.40134000  1.0
  C  C372  1  0.31497000  0.70634000  0.50887000  1.0
  C  C373  1  0.60047000  0.57354000  0.45212000  1.0
  C  C374  1  0.64973000  0.00627000  0.32099000  1.0
  C  C375  1  0.91672000  0.49788000  0.37100000  1.0
  C  C376  1  0.58328000  0.49788000  0.12900000  1.0
  C  C377  1  0.81497000  0.49113000  0.29366000  1.0
  C  C378  1  0.96086000  0.40134000  0.85891000  1.0
  C  C379  1  0.50887000  0.31497000  0.70634000  1.0
  C  C380  1  0.58060000  0.42531000  0.12616000  1.0
  C  C381  1  0.37384000  0.91940000  0.42531000  1.0
  C  C382  1  0.50077000  0.56006000  0.53373000  1.0
  C  C383  1  0.57469000  0.41940000  0.62616000  1.0
  C  C384  1  0.49788000  0.37100000  0.91672000  1.0
  C  C385  1  0.43994000  0.49923000  0.03373000  1.0
  C  C386  1  0.41672000  0.62900000  0.50212000  1.0
  C  C387  1  0.50396000  0.52891000  0.56200000  1.0
  C  C388  1  0.39944000  0.64415000  0.46751000  1.0
  C  C389  1  0.66767000  0.46945000  0.36595000  1.0
  C  C390  1  0.41672000  0.87100000  0.99788000  1.0
  C  C391  1  0.09866000  0.64109000  0.96086000  1.0
  C  C392  1  0.50212000  0.41672000  0.62900000  1.0
  C  C393  1  0.41940000  0.87384000  0.92531000  1.0
  C  C394  1  0.08903000  0.53217000  0.46397000  1.0
  C  C395  1  0.46397000  0.41097000  0.96783000  1.0
  C  C396  1  0.46086000  0.35891000  0.90134000  1.0
  C  C397  1  0.93800000  0.99604000  0.52891000  1.0
  C  C398  1  0.85027000  0.49373000  0.32099000  1.0
  C  C399  1  0.89734000  0.99838000  0.45017000  1.0
  C  C400  1  0.87100000  0.50212000  0.08328000  1.0
  C  C401  1  0.86746000  0.03994000  0.16640000  1.0
  C  C402  1  0.50396000  0.97109000  0.93800000  1.0
  C  C403  1  0.42531000  0.37384000  0.91940000  1.0
  C  C404  1  0.10047000  0.54788000  0.42646000  1.0
  C  C405  1  0.92646000  0.45212000  0.89953000  1.0
  C  C406  1  0.89953000  0.92646000  0.45212000  1.0
  C  C407  1  0.49373000  0.17901000  0.64973000  1.0
  C  C408  1  0.58060000  0.07469000  0.37384000  1.0
  C  C409  1  0.53217000  0.46397000  0.08903000  1.0
  C  C410  1  0.04983000  0.60266000  0.99838000  1.0
  C  C411  1  0.89734000  0.50162000  0.04983000  1.0
  C  C412  1  0.53055000  0.16767000  0.63405000  1.0
  C  C413  1  0.04788000  0.89953000  0.57354000  1.0
  C  C414  1  0.33360000  0.63254000  0.03994000  1.0
  C  C415  1  0.60056000  0.53249000  0.14415000  1.0
  C  C416  1  0.96751000  0.35585000  0.60056000  1.0
  C  C417  1  0.41940000  0.62616000  0.57469000  1.0
  C  C418  1  0.99373000  0.14973000  0.67901000  1.0
  C  C419  1  0.08903000  0.96783000  0.03603000  1.0
  C  C420  1  0.35585000  0.60056000  0.96751000  1.0
  C  C421  1  0.95017000  0.00162000  0.10266000  1.0
  C  C422  1  0.50212000  0.08328000  0.87100000  1.0
  C  C423  1  0.03603000  0.41097000  0.53217000  1.0
  C  C424  1  0.46627000  0.43994000  0.00077000  1.0
  C  C425  1  0.53994000  0.36746000  0.66640000  1.0
  C  C426  1  0.00627000  0.32099000  0.64973000  1.0
  C  C427  1  0.03055000  0.36595000  0.83233000  1.0
  C  C428  1  0.40134000  0.85891000  0.96086000  1.0
  C  C429  1  0.54788000  0.42646000  0.10047000  1.0
  C  C430  1  0.62616000  0.92531000  0.08060000  1.0
  C  C431  1  0.07469000  0.37384000  0.58060000  1.0
  C  C432  1  0.00396000  0.06200000  0.02891000  1.0
  C  C433  1  0.87100000  0.99788000  0.41672000  1.0
  C  C434  1  0.68503000  0.00887000  0.29366000  1.0
  C  C435  1  0.53373000  0.99923000  0.93994000  1.0
  C  C436  1  0.89953000  0.57354000  0.04788000  1.0
  C  C437  1  0.62616000  0.57469000  0.41940000  1.0
  C  C438  1  0.00887000  0.29366000  0.68503000  1.0
  C  C439  1  0.96751000  0.14415000  0.89944000  1.0
  C  C440  1  0.03249000  0.39944000  0.85585000  1.0
  C  C441  1  0.86595000  0.53055000  0.33233000  1.0
  C  C442  1  0.64415000  0.03249000  0.10056000  1.0
  C  C443  1  0.50077000  0.93994000  0.96627000  1.0
  C  C444  1  0.53994000  0.13254000  0.83360000  1.0
  C  C445  1  0.10056000  0.64415000  0.03249000  1.0
  C  C446  1  0.99604000  0.97109000  0.56200000  1.0
  C  C447  1  0.95017000  0.49838000  0.39734000  1.0
  C  C448  1  0.03603000  0.08903000  0.96783000  1.0
  C  C449  1  0.54788000  0.07354000  0.39953000  1.0
  C  C450  1  0.99838000  0.45017000  0.89734000  1.0
  C  C451  1  0.91097000  0.53603000  0.03217000  1.0
  C  C452  1  0.99113000  0.31497000  0.79366000  1.0
  C  C453  1  0.50162000  0.04983000  0.89734000  1.0
  C  C454  1  0.67901000  0.99373000  0.14973000  1.0
  C  C455  1  0.16640000  0.86746000  0.03994000  1.0
  C  C456  1  0.29366000  0.68503000  0.00887000  1.0
  C  C457  1  0.02891000  0.49604000  0.43800000  1.0
  C  C458  1  0.49373000  0.32099000  0.85027000  1.0
  C  C459  1  0.99788000  0.41672000  0.87100000  1.0
  C  C460  1  0.08328000  0.87100000  0.50212000  1.0
  C  C461  1  0.83233000  0.46945000  0.13405000  1.0
  C  C462  1  0.35891000  0.90134000  0.46086000  1.0
  C  C463  1  0.45212000  0.89953000  0.92646000  1.0
  C  C464  1  0.36595000  0.66767000  0.46945000  1.0
  C  C465  1  0.10056000  0.85585000  0.46751000  1.0
  C  C466  1  0.35027000  0.82099000  0.99373000  1.0
  C  C467  1  0.83233000  0.03055000  0.36595000  1.0
  C  C468  1  0.56200000  0.50396000  0.52891000  1.0
  C  C469  1  0.70634000  0.50887000  0.31497000  1.0
  C  C470  1  0.62900000  0.99788000  0.08328000  1.0
  C  C471  1  0.18503000  0.70634000  0.99113000  1.0
  C  C472  1  0.49923000  0.03373000  0.43994000  1.0
  C  C473  1  0.07469000  0.12616000  0.91940000  1.0
  C  C474  1  0.93994000  0.96627000  0.50077000  1.0
  C  C475  1  0.49838000  0.39734000  0.95017000  1.0
  C  C476  1  0.49923000  0.46627000  0.06006000  1.0
  C  C477  1  0.83360000  0.96006000  0.36746000  1.0
  C  C478  1  0.00212000  0.37100000  0.58328000  1.0
  C  C479  1  0.32099000  0.64973000  0.00627000  1.0
  C  C480  1  0.46783000  0.91097000  0.96397000  1.0
  C  C481  1  0.03373000  0.43994000  0.49923000  1.0
  C  C482  1  0.36746000  0.83360000  0.96006000  1.0
  C  C483  1  0.41097000  0.96783000  0.46397000  1.0
  C  C484  1  0.52891000  0.93800000  0.99604000  1.0
  C  C485  1  0.92646000  0.04788000  0.60047000  1.0
  C  C486  1  0.96397000  0.03217000  0.58903000  1.0
  C  C487  1  0.12616000  0.91940000  0.07469000  1.0
  C  C488  1  0.96945000  0.33233000  0.63405000  1.0
  C  C489  1  0.53914000  0.09866000  0.85891000  1.0
  C  C490  1  0.31497000  0.79366000  0.99113000  1.0
  C  C491  1  0.02891000  0.00396000  0.06200000  1.0
  C  C492  1  0.08328000  0.62900000  0.99788000  1.0
  C  C493  1  0.20634000  0.81497000  0.00887000  1.0
  C  C494  1  0.42646000  0.39953000  0.95212000  1.0
  C  C495  1  0.46783000  0.58903000  0.53603000  1.0
  C  C496  1  0.56006000  0.96627000  0.99923000  1.0
  C  C497  1  0.46945000  0.36595000  0.66767000  1.0
  C  C498  1  0.03249000  0.10056000  0.64415000  1.0
  C  C499  1  0.60266000  0.50162000  0.45017000  1.0
  C  C500  1  0.06006000  0.49923000  0.46627000  1.0
  C  C501  1  0.86595000  0.96945000  0.16767000  1.0
  C  C502  1  0.07354000  0.10047000  0.95212000  1.0
  C  C503  1  0.92531000  0.08060000  0.62616000  1.0
  C  C504  1  0.96086000  0.09866000  0.64109000  1.0
  C  C505  1  0.60047000  0.92646000  0.04788000  1.0
  C  C506  1  0.43800000  0.47109000  0.00396000  1.0
  C  C507  1  0.07354000  0.39953000  0.54788000  1.0
  C  C508  1  0.35585000  0.89944000  0.53249000  1.0
  C  C509  1  0.00162000  0.10266000  0.95017000  1.0
  C  C510  1  0.53249000  0.35585000  0.89944000  1.0
  C  C511  1  0.29366000  0.81497000  0.49113000  1.0
  C  C512  1  0.89944000  0.96751000  0.14415000  1.0
  C  C513  1  0.17901000  0.85027000  0.00627000  1.0
  C  C514  1  0.85891000  0.53914000  0.09866000  1.0
  C  C515  1  0.10266000  0.95017000  0.00162000  1.0
  C  C516  1  0.03914000  0.35891000  0.59866000  1.0
  C  C517  1  0.79366000  0.50887000  0.18503000  1.0
  C  C518  1  0.03994000  0.33360000  0.63254000  1.0
  C  C519  1  0.46627000  0.06006000  0.49923000  1.0
  C  C520  1  0.46751000  0.10056000  0.85585000  1.0
  C  C521  1  0.99604000  0.52891000  0.93800000  1.0
  C  C522  1  0.63254000  0.03994000  0.33360000  1.0
  C  C523  1  0.13254000  0.83360000  0.53994000  1.0
  C  C524  1  0.49838000  0.10266000  0.54983000  1.0
  C  C525  1  0.49113000  0.20634000  0.68503000  1.0
  C  C526  1  0.97109000  0.56200000  0.99604000  1.0
  C  C527  1  0.04788000  0.60047000  0.92646000  1.0
  C  C528  1  0.46086000  0.14109000  0.59866000  1.0
  C  C529  1  0.57469000  0.08060000  0.87384000  1.0
  C  C530  1  0.64973000  0.49373000  0.17901000  1.0
  C  C531  1  0.96945000  0.16767000  0.86595000  1.0
  C  C532  1  0.91940000  0.07469000  0.12616000  1.0
  C  C533  1  0.57354000  0.04788000  0.89953000  1.0
  C  C534  1  0.16767000  0.63405000  0.53055000  1.0
  C  C535  1  0.67901000  0.50627000  0.35027000  1.0
  C  C536  1  0.96397000  0.46783000  0.91097000  1.0
  C  C537  1  0.49113000  0.29366000  0.81497000  1.0
  C  C538  1  0.00627000  0.17901000  0.85027000  1.0
  C  C539  1  0.45017000  0.89734000  0.99838000  1.0
  C  C540  1  0.89944000  0.53249000  0.35585000  1.0
  C  C541  1  0.06200000  0.47109000  0.49604000  1.0
  C  C542  1  0.82099000  0.99373000  0.35027000  1.0
  C  C543  1  0.96006000  0.36746000  0.83360000  1.0
  C  C544  1  0.90134000  0.46086000  0.35891000  1.0
  C  C545  1  0.46945000  0.13405000  0.83233000  1.0
  C  C546  1  0.35027000  0.67901000  0.50627000  1.0
  C  C547  1  0.36595000  0.83233000  0.03055000  1.0
  C  C548  1  0.66640000  0.96006000  0.13254000  1.0
  C  C549  1  0.62900000  0.50212000  0.41672000  1.0
  C  C550  1  0.16640000  0.63254000  0.46006000  1.0
  C  C551  1  0.03373000  0.06006000  0.00077000  1.0
  C  C552  1  0.46751000  0.39944000  0.64415000  1.0
  C  C553  1  0.79366000  0.99113000  0.31497000  1.0
  C  C554  1  0.99113000  0.18503000  0.70634000  1.0
  C  C555  1  0.14415000  0.60056000  0.53249000  1.0
  C  C556  1  0.58903000  0.96397000  0.03217000  1.0
  C  C557  1  0.14109000  0.90134000  0.03914000  1.0
  C  C558  1  0.06200000  0.02891000  0.00396000  1.0
  C  C559  1  0.06006000  0.00077000  0.03373000  1.0
  C  C560  1  0.99923000  0.93994000  0.53373000  1.0
  C  C561  1  0.64415000  0.46751000  0.39944000  1.0
  C  C562  1  0.83360000  0.53994000  0.13254000  1.0
  C  C563  1  0.43800000  0.02891000  0.49604000  1.0
  C  C564  1  0.45017000  0.60266000  0.50162000  1.0
  C  C565  1  0.58903000  0.53603000  0.46783000  1.0
  C  C566  1  0.91940000  0.42531000  0.37384000  1.0
  C  C567  1  0.70634000  0.99113000  0.18503000  1.0
  C  C568  1  0.53217000  0.03603000  0.41097000  1.0
  C  C569  1  0.57354000  0.45212000  0.60047000  1.0
  C  C570  1  0.46397000  0.08903000  0.53217000  1.0
  C  C571  1  0.93800000  0.50396000  0.97109000  1.0
  C  C572  1  0.37100000  0.58328000  0.00212000  1.0
  C  C573  1  0.49604000  0.43800000  0.02891000  1.0
  C  C574  1  0.10047000  0.95212000  0.07354000  1.0
  C  C575  1  0.95212000  0.07354000  0.10047000  1.0
  C  C576  1  0.82099000  0.50627000  0.14973000  1.0
  C  C577  1  0.39953000  0.54788000  0.07354000  1.0
  C  C578  1  0.16767000  0.86595000  0.96945000  1.0
  C  C579  1  0.64109000  0.53914000  0.40134000  1.0
  C  C580  1  0.68503000  0.49113000  0.20634000  1.0
  C  C581  1  0.85585000  0.46751000  0.10056000  1.0
  C  C582  1  0.09866000  0.85891000  0.53914000  1.0
  C  C583  1  0.08060000  0.87384000  0.57469000  1.0
  C  C584  1  0.91672000  0.00212000  0.12900000  1.0
  C  C585  1  0.20634000  0.68503000  0.49113000  1.0
  C  C586  1  0.90134000  0.03914000  0.14109000  1.0
  C  C587  1  0.33233000  0.63405000  0.96945000  1.0
  C  C588  1  0.39953000  0.95212000  0.42646000  1.0
  C  C589  1  0.03914000  0.14109000  0.90134000  1.0
  C  C590  1  0.60056000  0.96751000  0.35585000  1.0
  C  C591  1  0.86746000  0.46006000  0.33360000  1.0
  C  C592  1  0.60266000  0.99838000  0.04983000  1.0
  C  C593  1  0.52891000  0.56200000  0.50396000  1.0
  C  C594  1  0.47109000  0.49604000  0.06200000  1.0
  C  C595  1  0.87384000  0.92531000  0.41940000  1.0
  C  C596  1  0.33233000  0.86595000  0.53055000  1.0
  C  C597  1  0.50162000  0.45017000  0.60266000  1.0
  C  C598  1  0.81497000  0.00887000  0.20634000  1.0
  C  C599  1  0.12616000  0.58060000  0.42531000  1.0
  C  C600  1  0.53603000  0.03217000  0.91097000  1.0
  C  C601  1  0.14973000  0.82099000  0.50627000  1.0
  C  C602  1  0.63405000  0.53055000  0.16767000  1.0
  C  C603  1  0.50887000  0.18503000  0.79366000  1.0
  C  C604  1  0.46006000  0.33360000  0.86746000  1.0
  C  C605  1  0.96627000  0.99923000  0.56006000  1.0
  C  C606  1  0.93994000  0.53373000  0.99923000  1.0
  C  C607  1  0.00077000  0.03373000  0.06006000  1.0
  C  C608  1  0.97109000  0.93800000  0.50396000  1.0
  C  C609  1  0.08060000  0.62616000  0.92531000  1.0
  C  C610  1  0.13254000  0.66640000  0.96006000  1.0
  C  C611  1  0.14415000  0.89944000  0.96751000  1.0
  C  C612  1  0.41097000  0.53217000  0.03603000  1.0
  C  C613  1  0.00077000  0.46627000  0.43994000  1.0
  C  C614  1  0.14973000  0.67901000  0.99373000  1.0
  C  C615  1  0.96783000  0.46397000  0.41097000  1.0
  C  C616  1  0.85585000  0.03249000  0.39944000  1.0
  C  C617  1  0.46006000  0.16640000  0.63254000  1.0
  C  C618  1  0.53249000  0.14415000  0.60056000  1.0
  C  C619  1  0.53603000  0.46783000  0.58903000  1.0
  C  C620  1  0.03217000  0.91097000  0.53603000  1.0
  C  C621  1  0.66640000  0.53994000  0.36746000  1.0
  C  C622  1  0.04983000  0.89734000  0.50162000  1.0
  C  C623  1  0.59866000  0.03914000  0.35891000  1.0
  C  C624  1  0.49604000  0.06200000  0.47109000  1.0
  C  C625  1  0.18503000  0.79366000  0.50887000  1.0
  C  C626  1  0.59866000  0.46086000  0.14109000  1.0
  C  C627  1  0.53055000  0.33233000  0.86595000  1.0
  C  C628  1  0.00887000  0.20634000  0.81497000  1.0
  C  C629  1  0.14109000  0.59866000  0.46086000  1.0
  C  C630  1  0.12900000  0.91672000  0.00212000  1.0
  C  C631  1  0.42646000  0.10047000  0.54788000  1.0
  C  C632  1  0.95212000  0.42646000  0.39953000  1.0
  C  C633  1  0.63254000  0.46006000  0.16640000  1.0
  C  C634  1  0.54983000  0.00162000  0.39734000  1.0
  C  C635  1  0.50627000  0.35027000  0.67901000  1.0
  C  C636  1  0.43994000  0.00077000  0.46627000  1.0
  C  C637  1  0.96783000  0.03603000  0.08903000  1.0
  C  C638  1  0.87384000  0.57469000  0.08060000  1.0
  C  C639  1  0.00162000  0.39734000  0.54983000  1.0
  C  C640  1  0.99838000  0.04983000  0.60266000  1.0
  C  C641  1  0.32099000  0.85027000  0.49373000  1.0
  C  C642  1  0.10266000  0.54983000  0.49838000  1.0
  C  C643  1  0.66767000  0.03055000  0.13405000  1.0
  C  C644  1  0.00396000  0.43800000  0.47109000  1.0
  C  C645  1  0.54983000  0.49838000  0.10266000  1.0
  C  C646  1  0.45212000  0.60047000  0.57354000  1.0
  C  C647  1  0.99788000  0.08328000  0.62900000  1.0
  C  C648  1  0.58328000  0.00212000  0.37100000  1.0
  C  C649  1  0.39944000  0.85585000  0.03249000  1.0
  C  C650  1  0.35891000  0.59866000  0.03914000  1.0
  C  C651  1  0.17901000  0.64973000  0.49373000  1.0
  C  C652  1  0.85027000  0.00627000  0.17901000  1.0
  C  C653  1  0.47109000  0.00396000  0.43800000  1.0
  C  C654  1  0.12900000  0.58328000  0.49788000  1.0
  C  C655  1  0.96627000  0.50077000  0.93994000  1.0
  C  C656  1  0.40134000  0.64109000  0.53914000  1.0
  C  C657  1  0.99923000  0.56006000  0.96627000  1.0
  C  C658  1  0.50627000  0.14973000  0.82099000  1.0
  C  C659  1  0.37100000  0.91672000  0.49788000  1.0
  C  C660  1  0.64109000  0.96086000  0.09866000  1.0
  C  C661  1  0.37384000  0.58060000  0.07469000  1.0
  C  C662  1  0.53914000  0.40134000  0.64109000  1.0
  C  C663  1  0.63405000  0.96945000  0.33233000  1.0
  C  C664  1  0.56200000  0.99604000  0.97109000  1.0
  C  C665  1  0.42531000  0.12616000  0.58060000  1.0
  C  C666  1  0.00212000  0.12900000  0.91672000  1.0
  C  C667  1  0.53373000  0.50077000  0.56006000  1.0
  C  C668  1  0.39734000  0.54983000  0.00162000  1.0
  C  C669  1  0.96006000  0.13254000  0.66640000  1.0
  C  C670  1  0.03055000  0.13405000  0.66767000  1.0
  C  C671  1  0.33360000  0.86746000  0.46006000  1.0
  C  C672  1  0.13254000  0.96006000  0.83360000  1.0
  C  C673  1  0.32099000  0.00627000  0.85027000  1.0
  C  C674  1  0.00887000  0.81497000  0.29366000  1.0
  C  C675  1  0.79366000  0.18503000  0.99113000  1.0
  C  C676  1  0.39734000  0.00162000  0.95017000  1.0
  C  C677  1  0.49604000  0.47109000  0.43800000  1.0
  C  C678  1  0.95017000  0.10266000  0.49838000  1.0
  C  C679  1  0.46751000  0.64415000  0.10056000  1.0
  C  C680  1  0.04983000  0.50162000  0.60266000  1.0
  C  C681  1  0.87384000  0.08060000  0.92531000  1.0
  C  C682  1  0.53914000  0.85891000  0.40134000  1.0
  C  C683  1  0.99923000  0.96627000  0.93994000  1.0
  C  C684  1  0.03994000  0.63254000  0.16640000  1.0
  C  C685  1  0.92531000  0.62616000  0.41940000  1.0
  C  C686  1  0.53603000  0.91097000  0.46783000  1.0
  C  C687  1  0.60047000  0.04788000  0.57354000  1.0
  C  C688  1  0.64109000  0.40134000  0.96086000  1.0
  C  C689  1  0.92646000  0.89953000  0.04788000  1.0
  C  C690  1  0.46086000  0.59866000  0.35891000  1.0
  C  C691  1  0.16640000  0.46006000  0.86746000  1.0
  C  C692  1  0.87100000  0.08328000  0.99788000  1.0
  C  C693  1  0.99604000  0.56200000  0.52891000  1.0
  C  C694  1  0.89734000  0.45017000  0.50162000  1.0
  C  C695  1  0.89734000  0.04983000  0.99838000  1.0
  C  C696  1  0.85891000  0.09866000  0.96086000  1.0
  C  C697  1  0.90134000  0.14109000  0.46086000  1.0
  C  C698  1  0.37384000  0.07469000  0.91940000  1.0
  C  C699  1  0.89944000  0.14415000  0.53249000  1.0
  C  C700  1  0.57469000  0.62616000  0.08060000  1.0
  C  C701  1  0.96086000  0.85891000  0.09866000  1.0
  C  C702  1  0.39953000  0.07354000  0.95212000  1.0
  C  C703  1  0.35585000  0.53249000  0.60056000  1.0
  C  C704  1  0.85585000  0.10056000  0.03249000  1.0
  C  C705  1  0.04983000  0.99838000  0.89734000  1.0
  C  C706  1  0.04788000  0.92646000  0.89953000  1.0
  C  C707  1  0.91672000  0.12900000  0.49788000  1.0
  C  C708  1  0.96945000  0.63405000  0.16767000  1.0
  C  C709  1  0.58328000  0.12900000  0.00212000  1.0
  C  C710  1  0.82099000  0.14973000  0.99373000  1.0
  C  C711  1  0.50887000  0.79366000  0.31497000  1.0
  C  C712  1  0.14415000  0.96751000  0.60056000  1.0
  C  C713  1  0.50162000  0.60266000  0.04983000  1.0
  C  C714  1  0.45017000  0.99838000  0.60266000  1.0
  C  C715  1  0.20634000  0.00887000  0.68503000  1.0
  C  C716  1  0.91672000  0.37100000  0.00212000  1.0
  C  C717  1  0.10266000  0.49838000  0.95017000  1.0
  C  C718  1  0.36746000  0.53994000  0.83360000  1.0
  C  C719  1  0.93994000  0.99923000  0.96627000  1.0
  C  C720  1  0.96783000  0.08903000  0.46397000  1.0
  C  C721  1  0.33360000  0.03994000  0.86746000  1.0
  C  C722  1  0.58903000  0.46783000  0.96397000  1.0
  C  C723  1  0.60047000  0.45212000  0.92646000  1.0
  C  C724  1  0.37100000  0.00212000  0.91672000  1.0
  C  C725  1  0.13405000  0.46945000  0.66767000  1.0
  C  C726  1  0.53373000  0.56006000  0.99923000  1.0
  C  C727  1  0.00077000  0.43994000  0.03373000  1.0
  C  C728  1  0.87100000  0.41672000  0.50212000  1.0
  C  C729  1  0.70634000  0.31497000  0.99113000  1.0
  C  C730  1  0.49373000  0.64973000  0.32099000  1.0
  C  C731  1  0.03914000  0.90134000  0.35891000  1.0
  C  C732  1  0.56006000  0.50077000  0.96627000  1.0
  C  C733  1  0.42531000  0.58060000  0.37384000  1.0
  C  C734  1  0.02891000  0.43800000  0.00396000  1.0
  C  C735  1  0.56200000  0.97109000  0.50396000  1.0
  C  C736  1  0.66640000  0.36746000  0.96006000  1.0
  C  C737  1  0.46945000  0.66767000  0.13405000  1.0
  C  C738  1  0.58060000  0.12616000  0.07469000  1.0
  C  C739  1  0.64973000  0.32099000  0.49373000  1.0
  C  C740  1  0.58060000  0.37384000  0.42531000  1.0
  C  C741  1  0.00887000  0.68503000  0.20634000  1.0
  C  C742  1  0.50212000  0.62900000  0.08328000  1.0
  C  C743  1  0.13405000  0.03055000  0.83233000  1.0
  C  C744  1  0.18503000  0.50887000  0.70634000  1.0
  C  C745  1  0.39944000  0.03249000  0.64415000  1.0
  C  C746  1  0.10047000  0.07354000  0.54788000  1.0
  C  C747  1  0.64415000  0.10056000  0.46751000  1.0
  C  C748  1  0.16767000  0.53055000  0.86595000  1.0
  C  C749  1  0.41097000  0.03603000  0.96783000  1.0
  C  C750  1  0.53994000  0.83360000  0.36746000  1.0
  C  C751  1  0.50212000  0.87100000  0.41672000  1.0
  C  C752  1  0.10047000  0.42646000  0.95212000  1.0
  C  C753  1  0.46627000  0.49923000  0.43994000  1.0
  C  C754  1  0.49838000  0.95017000  0.10266000  1.0
  C  C755  1  0.14973000  0.50627000  0.67901000  1.0
  C  C756  1  0.85585000  0.39944000  0.46751000  1.0
  C  C757  1  0.63405000  0.33233000  0.53055000  1.0
  C  C758  1  0.99788000  0.87100000  0.08328000  1.0
  C  C759  1  0.46751000  0.85585000  0.39944000  1.0
  C  C760  1  0.59866000  0.14109000  0.03914000  1.0
  C  C761  1  0.31497000  0.50887000  0.79366000  1.0
  C  C762  1  0.70634000  0.18503000  0.50887000  1.0
  C  C763  1  0.58903000  0.03217000  0.53603000  1.0
  C  C764  1  0.18503000  0.99113000  0.79366000  1.0
  C  C765  1  0.96006000  0.83360000  0.13254000  1.0
  C  C766  1  0.46397000  0.53217000  0.41097000  1.0
  C  C767  1  0.53055000  0.86595000  0.16767000  1.0
  C  C768  1  0.35585000  0.96751000  0.89944000  1.0
  C  C769  1  0.99113000  0.70634000  0.31497000  1.0
  C  C770  1  0.96397000  0.58903000  0.46783000  1.0
  C  C771  1  0.47109000  0.43800000  0.49604000  1.0
  C  C772  1  0.41672000  0.50212000  0.87100000  1.0
  C  C773  1  0.49113000  0.68503000  0.29366000  1.0
  C  C774  1  0.54983000  0.39734000  0.49838000  1.0
  C  C775  1  0.96086000  0.64109000  0.40134000  1.0
  C  C776  1  0.40134000  0.96086000  0.64109000  1.0
  C  C777  1  0.41097000  0.46397000  0.53217000  1.0
  C  C778  1  0.46627000  0.00077000  0.06006000  1.0
  C  C779  1  0.87384000  0.41940000  0.57469000  1.0
  C  C780  1  0.00077000  0.06006000  0.46627000  1.0
  C  C781  1  0.91940000  0.12616000  0.42531000  1.0
  C  C782  1  0.49923000  0.06006000  0.03373000  1.0
  C  C783  1  0.00396000  0.02891000  0.43800000  1.0
  C  C784  1  0.00162000  0.54983000  0.10266000  1.0
  C  C785  1  0.08060000  0.57469000  0.62616000  1.0
  C  C786  1  0.42646000  0.54788000  0.39953000  1.0
  C  C787  1  0.32099000  0.49373000  0.64973000  1.0
  C  C788  1  0.08903000  0.46397000  0.96783000  1.0
  C  C789  1  0.07469000  0.91940000  0.37384000  1.0
  C  C790  1  0.06006000  0.46627000  0.00077000  1.0
  C  C791  1  0.36595000  0.03055000  0.66767000  1.0
  C  C792  1  0.57354000  0.60047000  0.04788000  1.0
  C  C793  1  0.41940000  0.57469000  0.87384000  1.0
  C  C794  1  0.96397000  0.91097000  0.03217000  1.0
  C  C795  1  0.53217000  0.08903000  0.03603000  1.0
  C  C796  1  0.57354000  0.89953000  0.45212000  1.0
  C  C797  1  0.49373000  0.85027000  0.17901000  1.0
  C  C798  1  0.54788000  0.39953000  0.42646000  1.0
  C  C799  1  0.00212000  0.91672000  0.37100000  1.0
  C  C800  1  0.45017000  0.50162000  0.89734000  1.0
  C  C801  1  0.68503000  0.29366000  0.49113000  1.0
  C  C802  1  0.50162000  0.89734000  0.45017000  1.0
  C  C803  1  0.53249000  0.60056000  0.35585000  1.0
  C  C804  1  0.00627000  0.85027000  0.32099000  1.0
  C  C805  1  0.43994000  0.03373000  0.00077000  1.0
  C  C806  1  0.03603000  0.53217000  0.08903000  1.0
  C  C807  1  0.56006000  0.99923000  0.53373000  1.0
  C  C808  1  0.03373000  0.00077000  0.43994000  1.0
  C  C809  1  0.46006000  0.63254000  0.33360000  1.0
  C  C810  1  0.99838000  0.60266000  0.45017000  1.0
  C  C811  1  0.95017000  0.39734000  0.00162000  1.0
  C  C812  1  0.49788000  0.91672000  0.12900000  1.0
  C  C813  1  0.17901000  0.00627000  0.64973000  1.0
  C  C814  1  0.35027000  0.50627000  0.82099000  1.0
  C  C815  1  0.41940000  0.92531000  0.62616000  1.0
  C  C816  1  0.85027000  0.32099000  0.00627000  1.0
  C  C817  1  0.99373000  0.67901000  0.35027000  1.0
  C  C818  1  0.35891000  0.03914000  0.90134000  1.0
  C  C819  1  0.54983000  0.10266000  0.00162000  1.0
  C  C820  1  0.10056000  0.03249000  0.85585000  1.0
  C  C821  1  0.60266000  0.45017000  0.99838000  1.0
  C  C822  1  0.00212000  0.58328000  0.12900000  1.0
  C  C823  1  0.42646000  0.95212000  0.10047000  1.0
  C  C824  1  0.16640000  0.03994000  0.63254000  1.0
  C  C825  1  0.06200000  0.00396000  0.47109000  1.0
  C  C826  1  0.68503000  0.20634000  0.00887000  1.0
  C  C827  1  0.29366000  0.49113000  0.68503000  1.0
  C  C828  1  0.99113000  0.79366000  0.18503000  1.0
  C  C829  1  0.07354000  0.54788000  0.10047000  1.0
  C  C830  1  0.67901000  0.35027000  0.99373000  1.0
  C  C831  1  0.50077000  0.96627000  0.56006000  1.0
  C  C832  1  0.53055000  0.63405000  0.33233000  1.0
  C  C833  1  0.89953000  0.45212000  0.57354000  1.0
  C  C834  1  0.63405000  0.16767000  0.96945000  1.0
  C  C835  1  0.43994000  0.46627000  0.49923000  1.0
  C  C836  1  0.83233000  0.13405000  0.03055000  1.0
  C  C837  1  0.45212000  0.92646000  0.60047000  1.0
  C  C838  1  0.92531000  0.87384000  0.08060000  1.0
  C  C839  1  0.97109000  0.50396000  0.56200000  1.0
  C  C840  1  0.82099000  0.35027000  0.50627000  1.0
  C  C841  1  0.91940000  0.37384000  0.07469000  1.0
  C  C842  1  0.99788000  0.62900000  0.41672000  1.0
  C  C843  1  0.93994000  0.50077000  0.53373000  1.0
  C  C844  1  0.50077000  0.53373000  0.93994000  1.0
  C  C845  1  0.20634000  0.49113000  0.81497000  1.0
  C  C846  1  0.46006000  0.86746000  0.16640000  1.0
  C  C847  1  0.12900000  0.00212000  0.58328000  1.0
  C  C848  1  0.59866000  0.35891000  0.46086000  1.0
  C  C849  1  0.83360000  0.36746000  0.53994000  1.0
  C  C850  1  0.03249000  0.85585000  0.10056000  1.0
  C  C851  1  0.99838000  0.89734000  0.04983000  1.0
  C  C852  1  0.58328000  0.37100000  0.49788000  1.0
  C  C853  1  0.02891000  0.06200000  0.49604000  1.0
  C  C854  1  0.49923000  0.43994000  0.46627000  1.0
  C  C855  1  0.08328000  0.99788000  0.87100000  1.0
  C  C856  1  0.62616000  0.41940000  0.92531000  1.0
  C  C857  1  0.89944000  0.35585000  0.96751000  1.0
  C  C858  1  0.91097000  0.03217000  0.96397000  1.0
  C  C859  1  0.45212000  0.57354000  0.89953000  1.0
  C  C860  1  0.96627000  0.93994000  0.99923000  1.0
  C  C861  1  0.99923000  0.53373000  0.56006000  1.0
  C  C862  1  0.42531000  0.91940000  0.12616000  1.0
  C  C863  1  0.03217000  0.96397000  0.91097000  1.0
  C  C864  1  0.10266000  0.00162000  0.54983000  1.0
  C  C865  1  0.62900000  0.41672000  0.99788000  1.0
  C  C866  1  0.97109000  0.99604000  0.93800000  1.0
  C  C867  1  0.08060000  0.92531000  0.87384000  1.0
  C  C868  1  0.60266000  0.04983000  0.50162000  1.0
  C  C869  1  0.00396000  0.47109000  0.06200000  1.0
  C  C870  1  0.09866000  0.96086000  0.85891000  1.0
  C  C871  1  0.91097000  0.46783000  0.53603000  1.0
  C  C872  1  0.86595000  0.33233000  0.96945000  1.0
  C  C873  1  0.14973000  0.99373000  0.82099000  1.0
  C  C874  1  0.85027000  0.17901000  0.49373000  1.0
  C  C875  1  0.09866000  0.53914000  0.64109000  1.0
  C  C876  1  0.08328000  0.50212000  0.62900000  1.0
  C  C877  1  0.36746000  0.96006000  0.66640000  1.0
  C  C878  1  0.46945000  0.83233000  0.36595000  1.0
  C  C879  1  0.33360000  0.46006000  0.63254000  1.0
  C  C880  1  0.85891000  0.40134000  0.53914000  1.0
  C  C881  1  0.62900000  0.08328000  0.50212000  1.0
  C  C882  1  0.03994000  0.86746000  0.33360000  1.0
  C  C883  1  0.49113000  0.81497000  0.20634000  1.0
  C  C884  1  0.39944000  0.46751000  0.85585000  1.0
  C  C885  1  0.31497000  0.99113000  0.70634000  1.0
  C  C886  1  0.50887000  0.70634000  0.18503000  1.0
  C  C887  1  0.39953000  0.42646000  0.54788000  1.0
  C  C888  1  0.35027000  0.99373000  0.67901000  1.0
  C  C889  1  0.06006000  0.03373000  0.49923000  1.0
  C  C890  1  0.99604000  0.93800000  0.97109000  1.0
  C  C891  1  0.04788000  0.57354000  0.60047000  1.0
  C  C892  1  0.63254000  0.16640000  0.03994000  1.0
  C  C893  1  0.96627000  0.56006000  0.50077000  1.0
  C  C894  1  0.95212000  0.10047000  0.42646000  1.0
  C  C895  1  0.92646000  0.60047000  0.45212000  1.0
  C  C896  1  0.50627000  0.82099000  0.35027000  1.0
  C  C897  1  0.49604000  0.02891000  0.06200000  1.0
  C  C898  1  0.63254000  0.33360000  0.46006000  1.0
  C  C899  1  0.67901000  0.14973000  0.50627000  1.0
  C  C900  1  0.50396000  0.56200000  0.97109000  1.0
  C  C901  1  0.33233000  0.96945000  0.86595000  1.0
  C  C902  1  0.90134000  0.35891000  0.03914000  1.0
  C  C903  1  0.03603000  0.96783000  0.41097000  1.0
  C  C904  1  0.08903000  0.03603000  0.53217000  1.0
  C  C905  1  0.60056000  0.14415000  0.96751000  1.0
  C  C906  1  0.86595000  0.16767000  0.53055000  1.0
  C  C907  1  0.37384000  0.42531000  0.58060000  1.0
  C  C908  1  0.13254000  0.53994000  0.66640000  1.0
  C  C909  1  0.46086000  0.90134000  0.14109000  1.0
  C  C910  1  0.50396000  0.93800000  0.52891000  1.0
  C  C911  1  0.46783000  0.96397000  0.58903000  1.0
  C  C912  1  0.16767000  0.96945000  0.63405000  1.0
  C  C913  1  0.81497000  0.29366000  0.00887000  1.0
  C  C914  1  0.66767000  0.36595000  0.03055000  1.0
  C  C915  1  0.96783000  0.41097000  0.03603000  1.0
  C  C916  1  0.06200000  0.49604000  0.02891000  1.0
  C  C917  1  0.64415000  0.39944000  0.03249000  1.0
  C  C918  1  0.53373000  0.93994000  0.50077000  1.0
  C  C919  1  0.03373000  0.49923000  0.06006000  1.0
  C  C920  1  0.57469000  0.87384000  0.41940000  1.0
  C  C921  1  0.60056000  0.35585000  0.53249000  1.0
  C  C922  1  0.03217000  0.53603000  0.58903000  1.0
  C  C923  1  0.14109000  0.03914000  0.59866000  1.0
  C  C924  1  0.81497000  0.20634000  0.49113000  1.0
  C  C925  1  0.14109000  0.46086000  0.90134000  1.0
  C  C926  1  0.93800000  0.97109000  0.99604000  1.0
  C  C927  1  0.53994000  0.66640000  0.13254000  1.0
  C  C928  1  0.03055000  0.83233000  0.13405000  1.0
  C  C929  1  0.00162000  0.95017000  0.39734000  1.0
  C  C930  1  0.99373000  0.82099000  0.14973000  1.0
  C  C931  1  0.03055000  0.66767000  0.36595000  1.0
  C  C932  1  0.46783000  0.53603000  0.91097000  1.0
  C  C933  1  0.53249000  0.89944000  0.14415000  1.0
  C  C934  1  0.50627000  0.67901000  0.14973000  1.0
  C  C935  1  0.96006000  0.66640000  0.36746000  1.0
  C  C936  1  0.07469000  0.58060000  0.12616000  1.0
  C  C937  1  0.64109000  0.09866000  0.53914000  1.0
  C  C938  1  0.83233000  0.36595000  0.46945000  1.0
  C  C939  1  0.95212000  0.39953000  0.07354000  1.0
  C  C940  1  0.07354000  0.95212000  0.39953000  1.0
  C  C941  1  0.17901000  0.49373000  0.85027000  1.0
  C  C942  1  0.37100000  0.49788000  0.58328000  1.0
  C  C943  1  0.47109000  0.06200000  0.00396000  1.0
  C  C944  1  0.86746000  0.33360000  0.03994000  1.0
  C  C945  1  0.53914000  0.64109000  0.09866000  1.0
  C  C946  1  0.52891000  0.99604000  0.56200000  1.0
  C  C947  1  0.96945000  0.86595000  0.33233000  1.0
  C  C948  1  0.35891000  0.46086000  0.59866000  1.0
  C  C949  1  0.53603000  0.58903000  0.03217000  1.0
  C  C950  1  0.53217000  0.41097000  0.46397000  1.0
  C  C951  1  0.12616000  0.07469000  0.58060000  1.0
  C  C952  1  0.33233000  0.53055000  0.63405000  1.0
  C  C953  1  0.41672000  0.99788000  0.62900000  1.0
  C  C954  1  0.56200000  0.52891000  0.99604000  1.0
  C  C955  1  0.79366000  0.31497000  0.50887000  1.0
  C  C956  1  0.89953000  0.04788000  0.92646000  1.0
  C  C957  1  0.64973000  0.17901000  0.00627000  1.0
  C  C958  1  0.46397000  0.96783000  0.08903000  1.0
  C  C959  1  0.54788000  0.10047000  0.07354000  1.0
  C  C960  1  0.86746000  0.16640000  0.46006000  1.0
  C  C961  1  0.03914000  0.59866000  0.14109000  1.0
  C  C962  1  0.62616000  0.08060000  0.57469000  1.0
  C  C963  1  0.96751000  0.60056000  0.14415000  1.0
  C  C964  1  0.93800000  0.52891000  0.50396000  1.0
  C  C965  1  0.52891000  0.50396000  0.93800000  1.0
  C  C966  1  0.36595000  0.46945000  0.83233000  1.0
  C  C967  1  0.00627000  0.64973000  0.17901000  1.0
  C  C968  1  0.40134000  0.53914000  0.85891000  1.0
  C  C969  1  0.29366000  0.00887000  0.81497000  1.0
  C  C970  1  0.14415000  0.53249000  0.89944000  1.0
  C  C971  1  0.39734000  0.49838000  0.54983000  1.0
  C  C972  1  0.03249000  0.64415000  0.39944000  1.0
  C  C973  1  0.12900000  0.49788000  0.91672000  1.0
  C  C974  1  0.12616000  0.42531000  0.91940000  1.0
  C  C975  1  0.49838000  0.54983000  0.39734000  1.0
  C  C976  1  0.10056000  0.46751000  0.64415000  1.0
  C  C977  1  0.43800000  0.00396000  0.02891000  1.0
  C  C978  1  0.96751000  0.89944000  0.35585000  1.0
  C  C979  1  0.66640000  0.13254000  0.53994000  1.0
  C  C980  1  0.49788000  0.58328000  0.37100000  1.0
  C  C981  1  0.43800000  0.49604000  0.47109000  1.0
  C  C982  1  0.83360000  0.13254000  0.96006000  1.0
  C  C983  1  0.66767000  0.13405000  0.46945000  1.0
  O  O984  1  0.28464000  0.69818000  0.04244000  1.0
  O  O985  1  0.80182000  0.45756000  0.28464000  1.0
  O  O986  1  0.29991000  0.78287000  0.02369000  1.0
  O  O987  1  0.52369000  0.28287000  0.79991000  1.0
  O  O988  1  0.54244000  0.19818000  0.78464000  1.0
  O  O989  1  0.45756000  0.21536000  0.69818000  1.0
  O  O990  1  0.30182000  0.71536000  0.54244000  1.0
  O  O991  1  0.02369000  0.20009000  0.71713000  1.0
  O  O992  1  0.70009000  0.97631000  0.28287000  1.0
  O  O993  1  0.21536000  0.69818000  0.45756000  1.0
  O  O994  1  0.02369000  0.29991000  0.78287000  1.0
  O  O995  1  0.69818000  0.04244000  0.28464000  1.0
  O  O996  1  0.20009000  0.78287000  0.47631000  1.0
  O  O997  1  0.78464000  0.95756000  0.30182000  1.0
  O  O998  1  0.54244000  0.30182000  0.71536000  1.0
  O  O999  1  0.71713000  0.02369000  0.20009000  1.0
  O  O1000  1  0.71536000  0.95756000  0.19818000  1.0
  O  O1001  1  0.28287000  0.79991000  0.52369000  1.0
  O  O1002  1  0.19818000  0.71536000  0.95756000  1.0
  O  O1003  1  0.97631000  0.28287000  0.70009000  1.0
  O  O1004  1  0.47631000  0.29991000  0.71713000  1.0
  O  O1005  1  0.29991000  0.71713000  0.47631000  1.0
  O  O1006  1  0.70009000  0.52369000  0.21713000  1.0
  O  O1007  1  0.71536000  0.54244000  0.30182000  1.0
  O  O1008  1  0.47631000  0.20009000  0.78287000  1.0
  O  O1009  1  0.28287000  0.70009000  0.97631000  1.0
  O  O1010  1  0.79991000  0.97631000  0.21713000  1.0
  O  O1011  1  0.21713000  0.79991000  0.97631000  1.0
  O  O1012  1  0.21713000  0.70009000  0.52369000  1.0
  O  O1013  1  0.19818000  0.78464000  0.54244000  1.0
  O  O1014  1  0.80182000  0.04244000  0.21536000  1.0
  O  O1015  1  0.30182000  0.78464000  0.95756000  1.0
  O  O1016  1  0.71713000  0.47631000  0.29991000  1.0
  O  O1017  1  0.04244000  0.21536000  0.80182000  1.0
  O  O1018  1  0.78287000  0.47631000  0.20009000  1.0
  O  O1019  1  0.78464000  0.54244000  0.19818000  1.0
  O  O1020  1  0.69818000  0.45756000  0.21536000  1.0
  O  O1021  1  0.52369000  0.21713000  0.70009000  1.0
  O  O1022  1  0.45756000  0.28464000  0.80182000  1.0
  O  O1023  1  0.28464000  0.80182000  0.45756000  1.0
  O  O1024  1  0.95756000  0.19818000  0.71536000  1.0
  O  O1025  1  0.78287000  0.02369000  0.29991000  1.0
  O  O1026  1  0.97631000  0.21713000  0.79991000  1.0
  O  O1027  1  0.04244000  0.28464000  0.69818000  1.0
  O  O1028  1  0.95756000  0.30182000  0.78464000  1.0
  O  O1029  1  0.20009000  0.71713000  0.02369000  1.0
  O  O1030  1  0.79991000  0.52369000  0.28287000  1.0
  O  O1031  1  0.21536000  0.80182000  0.04244000  1.0
  O  O1032  1  0.71713000  0.29991000  0.02369000  1.0
  O  O1033  1  0.21536000  0.04244000  0.69818000  1.0
  O  O1034  1  0.71536000  0.19818000  0.54244000  1.0
  O  O1035  1  0.20009000  0.02369000  0.78287000  1.0
  O  O1036  1  0.95756000  0.71536000  0.30182000  1.0
  O  O1037  1  0.45756000  0.69818000  0.28464000  1.0
  O  O1038  1  0.70009000  0.28287000  0.52369000  1.0
  O  O1039  1  0.02369000  0.71713000  0.29991000  1.0
  O  O1040  1  0.69818000  0.21536000  0.04244000  1.0
  O  O1041  1  0.19818000  0.95756000  0.78464000  1.0
  O  O1042  1  0.52369000  0.70009000  0.28287000  1.0
  O  O1043  1  0.97631000  0.79991000  0.28287000  1.0
  O  O1044  1  0.20009000  0.47631000  0.71713000  1.0
  O  O1045  1  0.04244000  0.69818000  0.21536000  1.0
  O  O1046  1  0.78464000  0.30182000  0.54244000  1.0
  O  O1047  1  0.80182000  0.21536000  0.45756000  1.0
  O  O1048  1  0.29991000  0.02369000  0.71713000  1.0
  O  O1049  1  0.02369000  0.78287000  0.20009000  1.0
  O  O1050  1  0.47631000  0.78287000  0.29991000  1.0
  O  O1051  1  0.78287000  0.29991000  0.47631000  1.0
  O  O1052  1  0.28287000  0.97631000  0.79991000  1.0
  O  O1053  1  0.28464000  0.04244000  0.80182000  1.0
  O  O1054  1  0.28464000  0.45756000  0.69818000  1.0
  O  O1055  1  0.29991000  0.47631000  0.78287000  1.0
  O  O1056  1  0.04244000  0.80182000  0.28464000  1.0
  O  O1057  1  0.54244000  0.71536000  0.19818000  1.0
  O  O1058  1  0.97631000  0.70009000  0.21713000  1.0
  O  O1059  1  0.47631000  0.71713000  0.20009000  1.0
  O  O1060  1  0.54244000  0.78464000  0.30182000  1.0
  O  O1061  1  0.21536000  0.45756000  0.80182000  1.0
  O  O1062  1  0.19818000  0.54244000  0.71536000  1.0
  O  O1063  1  0.71713000  0.20009000  0.47631000  1.0
  O  O1064  1  0.30182000  0.54244000  0.78464000  1.0
  O  O1065  1  0.79991000  0.21713000  0.52369000  1.0
  O  O1066  1  0.78464000  0.19818000  0.95756000  1.0
  O  O1067  1  0.21713000  0.97631000  0.70009000  1.0
  O  O1068  1  0.95756000  0.78464000  0.19818000  1.0
  O  O1069  1  0.30182000  0.95756000  0.71536000  1.0
  O  O1070  1  0.21713000  0.52369000  0.79991000  1.0
  O  O1071  1  0.45756000  0.80182000  0.21536000  1.0
  O  O1072  1  0.52369000  0.79991000  0.21713000  1.0
  O  O1073  1  0.28287000  0.52369000  0.70009000  1.0
  O  O1074  1  0.78287000  0.20009000  0.02369000  1.0
  O  O1075  1  0.71536000  0.30182000  0.95756000  1.0
  O  O1076  1  0.80182000  0.28464000  0.04244000  1.0
  O  O1077  1  0.70009000  0.21713000  0.97631000  1.0
  O  O1078  1  0.79991000  0.28287000  0.97631000  1.0
  O  O1079  1  0.69818000  0.28464000  0.45756000  1.0
