# generated using pymatgen
data_Zr18H132C360O97F180
_symmetry_space_group_name_H-M   'P 1'
_cell_length_a   16.79200000
_cell_length_b   41.04650000
_cell_length_c   41.04650000
_cell_angle_alpha   120.00000000
_cell_angle_beta   90.00000000
_cell_angle_gamma   90.00000000
_symmetry_Int_Tables_number   1
_chemical_formula_structural   Zr18H132C360O97F180
_chemical_formula_sum   'Zr18 H132 C360 O97 F180'
_cell_volume   24501.08514214
_cell_formula_units_Z   1
loop_
 _symmetry_equiv_pos_site_id
 _symmetry_equiv_pos_as_xyz
  1  'x, y, z'
loop_
 _atom_site_type_symbol
 _atom_site_label
 _atom_site_symmetry_multiplicity
 _atom_site_fract_x
 _atom_site_fract_y
 _atom_site_fract_z
 _atom_site_occupancy
  Zr  Zr0  1  0.04221000  0.54828000  0.46083000  1.0
  Zr  Zr1  1  0.95091000  0.01451000  0.53588000  1.0
  Zr  Zr2  1  0.04182000  0.08216000  0.52614000  1.0
  Zr  Zr3  1  0.15676000  0.01327000  0.52896000  1.0
  Zr  Zr4  1  0.13798000  0.01507000  0.44617000  1.0
  Zr  Zr5  1  0.95595000  0.46883000  0.44798000  1.0
  Zr  Zr6  1  0.93362000  0.55209000  0.53132000  1.0
  Zr  Zr7  1  0.16232000  0.47857000  0.45705000  1.0
  Zr  Zr8  1  0.93424000  0.01447000  0.45169000  1.0
  Zr  Zr9  1  0.04348000  0.94893000  0.45843000  1.0
  Zr  Zr10  1  0.93656000  0.55483000  0.99250000  1.0
  Zr  Zr11  1  0.14105000  0.55510000  0.99223000  1.0
  Zr  Zr12  1  0.93449000  0.47095000  0.99222000  1.0
  Zr  Zr13  1  0.04005000  0.47987000  0.92754000  1.0
  Zr  Zr14  1  0.04607000  0.48175000  0.52622000  1.0
  Zr  Zr15  1  0.13866000  0.47077000  0.99460000  1.0
  Zr  Zr16  1  0.13498000  0.56162000  0.54009000  1.0
  Zr  Zr17  1  0.03721000  0.54660000  0.05856000  1.0
  H  H18  1  0.77077000  0.46659000  0.08017000  1.0
  H  H19  1  0.24567000  0.34249000  0.53680000  1.0
  H  H20  1  0.31143000  0.10097000  0.44206000  1.0
  H  H21  1  0.93192000  0.18541000  0.52998000  1.0
  H  H22  1  0.82243000  0.51245000  0.74194000  1.0
  H  H23  1  0.82114000  0.26205000  0.48696000  1.0
  H  H24  1  0.84935000  0.47014000  0.77183000  1.0
  H  H25  1  0.16121000  0.47058000  0.82406000  1.0
  H  H26  1  0.22217000  0.54856000  0.21221000  1.0
  H  H27  1  0.78968000  0.56243000  0.63075000  1.0
  H  H28  1  0.17064000  0.39306000  0.53418000  1.0
  H  H29  1  0.61354000  0.51207000  0.65958000  1.0
  H  H30  1  0.85546000  0.79447000  0.30866000  1.0
  H  H31  1  0.77762000  0.38115000  0.44517000  1.0
  H  H32  1  0.37570000  0.87268000  0.29944000  1.0
  H  H33  1  0.14703000  0.54973000  0.16146000  1.0
  H  H34  1  0.30672000  0.92655000  0.35091000  1.0
  H  H35  1  0.69799000  0.46512000  0.13149000  1.0
  H  H36  1  0.70171000  0.32904000  0.44353000  1.0
  H  H37  1  0.25473000  0.76371000  0.23988000  1.0
  H  H38  1  0.61062000  0.84604000  0.49056000  1.0
  H  H39  1  0.91024000  0.18197000  0.61784000  1.0
  H  H40  1  0.84141000  0.55461000  0.31591000  1.0
  H  H41  1  0.47020000  0.50668000  0.82181000  1.0
  H  H42  1  0.69804000  0.87872000  0.54027000  1.0
  H  H43  1  0.60590000  0.17701000  0.66322000  1.0
  H  H44  1  0.37413000  0.56851000  0.68679000  1.0
  H  H45  1  0.45987000  0.17625000  0.66515000  1.0
  H  H46  1  0.81538000  0.26062000  0.74416000  1.0
  H  H47  1  0.70700000  0.45986000  0.30322000  1.0
  H  H48  1  0.92834000  0.38427000  0.53125000  1.0
  H  H49  1  0.75560000  0.38858000  0.90385000  1.0
  H  H50  1  0.60754000  0.35015000  0.81744000  1.0
  H  H51  1  0.61481000  0.52200000  0.16620000  1.0
  H  H52  1  0.61134000  0.51179000  0.32521000  1.0
  H  H53  1  0.68480000  0.33415000  0.85422000  1.0
  H  H54  1  0.84905000  0.69467000  0.21208000  1.0
  H  H55  1  0.83717000  0.46446000  0.66512000  1.0
  H  H56  1  0.70632000  0.14904000  0.68361000  1.0
  H  H57  1  0.31170000  0.37735000  0.90763000  1.0
  H  H58  1  0.85349000  0.79608000  0.45640000  1.0
  H  H59  1  0.25434000  0.26093000  0.74678000  1.0
  H  H60  1  0.77036000  0.92886000  0.53670000  1.0
  H  H61  1  0.32211000  0.47821000  0.08127000  1.0
  H  H62  1  0.61517000  0.50522000  0.82067000  1.0
  H  H63  1  0.92937000  0.84651000  0.45502000  1.0
  H  H64  1  0.22887000  0.79684000  0.31667000  1.0
  H  H65  1  0.30899000  0.65008000  0.54361000  1.0
  H  H66  1  0.85565000  0.32737000  0.77300000  1.0
  H  H67  1  0.28819000  0.36512000  0.43048000  1.0
  H  H68  1  0.38110000  0.15338000  0.44211000  1.0
  H  H69  1  0.23487000  0.23199000  0.53386000  1.0
  H  H70  1  0.23735000  0.55522000  0.31523000  1.0
  H  H71  1  0.15635000  0.38848000  0.83055000  1.0
  H  H72  1  0.25739000  0.10278000  0.64784000  1.0
  H  H73  1  0.61409000  0.68136000  0.49019000  1.0
  H  H74  1  0.92381000  0.64328000  0.16062000  1.0
  H  H75  1  0.16199000  0.17897000  0.53267000  1.0
  H  H76  1  0.46577000  0.51173000  0.32470000  1.0
  H  H77  1  0.36945000  0.87771000  0.54837000  1.0
  H  H78  1  0.60514000  0.83989000  0.32969000  1.0
  H  H79  1  0.61390000  0.18472000  0.49688000  1.0
  H  H80  1  0.70419000  0.70278000  0.54351000  1.0
  H  H81  1  0.15956000  0.55497000  0.36603000  1.0
  H  H82  1  0.26030000  0.76749000  0.50055000  1.0
  H  H83  1  0.38071000  0.32503000  0.85472000  1.0
  H  H84  1  0.33639000  0.15374000  0.69860000  1.0
  H  H85  1  0.24177000  0.47178000  0.66958000  1.0
  H  H86  1  0.83287000  0.23203000  0.66927000  1.0
  H  H87  1  0.26166000  0.51778000  0.74580000  1.0
  H  H88  1  0.46486000  0.67626000  0.16515000  1.0
  H  H89  1  0.93155000  0.84566000  0.35975000  1.0
  H  H90  1  0.15864000  0.64443000  0.45609000  1.0
  H  H91  1  0.30008000  0.56907000  0.63497000  1.0
  H  H92  1  0.91218000  0.46313000  0.61287000  1.0
  H  H93  1  0.23402000  0.69598000  0.45671000  1.0
  H  H94  1  0.25964000  0.26220000  0.48920000  1.0
  H  H95  1  0.76191000  0.64436000  0.08018000  1.0
  H  H96  1  0.46821000  0.51393000  0.66087000  1.0
  H  H97  1  0.46539000  0.84697000  0.49332000  1.0
  H  H98  1  0.61160000  0.34748000  0.49345000  1.0
  H  H99  1  0.82129000  0.76699000  0.49650000  1.0
  H  H100  1  0.46901000  0.18471000  0.49732000  1.0
  H  H101  1  0.75485000  0.92503000  0.36861000  1.0
  H  H102  1  0.38211000  0.56129000  0.85539000  1.0
  H  H103  1  0.22485000  0.68978000  0.20914000  1.0
  H  H104  1  0.71407000  0.56375000  0.68275000  1.0
  H  H105  1  0.77427000  0.55818000  0.90432000  1.0
  H  H106  1  0.25967000  0.50974000  0.24036000  1.0
  H  H107  1  0.91938000  0.64063000  0.45020000  1.0
  H  H108  1  0.26736000  0.22845000  0.65871000  1.0
  H  H109  1  0.23845000  0.79464000  0.45291000  1.0
  H  H110  1  0.23572000  0.47213000  0.77326000  1.0
  H  H111  1  0.46061000  0.84186000  0.32742000  1.0
  H  H112  1  0.46954000  0.68175000  0.49188000  1.0
  H  H113  1  0.60935000  0.67707000  0.16527000  1.0
  H  H114  1  0.46596000  0.34579000  0.49043000  1.0
  H  H115  1  0.19245000  0.17700000  0.60685000  1.0
  H  H116  1  0.36451000  0.31582000  0.43370000  1.0
  H  H117  1  0.39192000  0.47311000  0.13103000  1.0
  H  H118  1  0.77589000  0.10076000  0.44915000  1.0
  H  H119  1  0.38196000  0.70300000  0.54549000  1.0
  H  H120  1  0.30856000  0.55933000  0.90629000  1.0
  H  H121  1  0.69079000  0.69783000  0.13136000  1.0
  H  H122  1  0.92304000  0.46938000  0.82319000  1.0
  H  H123  1  0.31835000  0.64443000  0.07907000  1.0
  H  H124  1  0.15835000  0.85114000  0.36814000  1.0
  H  H125  1  0.92441000  0.55273000  0.16147000  1.0
  H  H126  1  0.81584000  0.76526000  0.24175000  1.0
  H  H127  1  0.78257000  0.09867000  0.63131000  1.0
  H  H128  1  0.85382000  0.23454000  0.52801000  1.0
  H  H129  1  0.15522000  0.63698000  0.15563000  1.0
  H  H130  1  0.15887000  0.84468000  0.45237000  1.0
  H  H131  1  0.69980000  0.15019000  0.44505000  1.0
  H  H132  1  0.29273000  0.45948000  0.35220000  1.0
  H  H133  1  0.85092000  0.33297000  0.53031000  1.0
  H  H134  1  0.78301000  0.46075000  0.35507000  1.0
  H  H135  1  0.85031000  0.55191000  0.21270000  1.0
  H  H136  1  0.38356000  0.69847000  0.13165000  1.0
  H  H137  1  0.82067000  0.50853000  0.24143000  1.0
  H  H138  1  0.46290000  0.34917000  0.82018000  1.0
  H  H139  1  0.93143000  0.37913000  0.82373000  1.0
  H  H140  1  0.68472000  0.87512000  0.31411000  1.0
  H  H141  1  0.36991000  0.45941000  0.30105000  1.0
  H  H142  1  0.84598000  0.69332000  0.45199000  1.0
  H  H143  1  0.91797000  0.55523000  0.36718000  1.0
  H  H144  1  0.47033000  0.52518000  0.16767000  1.0
  H  H145  1  0.22708000  0.33614000  0.77707000  1.0
  H  H146  1  0.70254000  0.55994000  0.85297000  1.0
  H  H147  1  0.77589000  0.64916000  0.54088000  1.0
  H  H148  1  0.28937000  0.92790000  0.54811000  1.0
  H  H149  1  0.16719000  0.47241000  0.61841000  1.0
  C  C150  1  0.22403000  0.68110000  0.03231000  1.0
  C  C151  1  0.32975000  0.54705000  0.67189000  1.0
  C  C152  1  0.44662000  0.73288000  0.21173000  1.0
  C  C153  1  0.76035000  0.19592000  0.68146000  1.0
  C  C154  1  0.87251000  0.65433000  0.15338000  1.0
  C  C155  1  0.82524000  0.48610000  0.65804000  1.0
  C  C156  1  0.25069000  0.82352000  0.47404000  1.0
  C  C157  1  0.67227000  0.27984000  0.35808000  1.0
  C  C158  1  0.86236000  0.13763000  0.48959000  1.0
  C  C159  1  0.90503000  0.10349000  0.58579000  1.0
  C  C160  1  0.74966000  0.53944000  0.84566000  1.0
  C  C161  1  0.85394000  0.13492000  0.61868000  1.0
  C  C162  1  0.36385000  0.29276000  0.48774000  1.0
  C  C163  1  0.38514000  0.45070000  0.45228000  1.0
  C  C164  1  0.49410000  0.26194000  0.48752000  1.0
  C  C165  1  0.44506000  0.22947000  0.71675000  1.0
  C  C166  1  0.82738000  0.53378000  0.32385000  1.0
  C  C167  1  0.90842000  0.50921000  0.39957000  1.0
  C  C168  1  0.25229000  0.20359000  0.51340000  1.0
  C  C169  1  0.24639000  0.34451000  0.80536000  1.0
  C  C170  1  0.79194000  0.65799000  0.52093000  1.0
  C  C171  1  0.80476000  0.63219000  0.61745000  1.0
  C  C172  1  0.71750000  0.51414000  0.71188000  1.0
  C  C173  1  0.31298000  0.83099000  0.50028000  1.0
  C  C174  1  0.26035000  0.12965000  0.64905000  1.0
  C  C175  1  0.24189000  0.02634000  0.34121000  1.0
  C  C176  1  0.56255000  0.09821000  0.72592000  1.0
  C  C177  1  0.83411000  0.82480000  0.47444000  1.0
  C  C178  1  0.32252000  0.33219000  0.45602000  1.0
  C  C179  1  0.71563000  0.50813000  0.27216000  1.0
  C  C180  1  0.86870000  0.48525000  0.62742000  1.0
  C  C181  1  0.17786000  0.60885000  0.49878000  1.0
  C  C182  1  0.76536000  0.50903000  0.17760000  1.0
  C  C183  1  0.31915000  0.76337000  0.24061000  1.0
  C  C184  1  0.78657000  0.66722000  0.01924000  1.0
  C  C185  1  0.29610000  0.82017000  0.12387000  1.0
  C  C186  1  0.91486000  0.10788000  0.49342000  1.0
  C  C187  1  0.17698000  0.51408000  0.08355000  1.0
  C  C188  1  0.29817000  0.86047000  0.13031000  1.0
  C  C189  1  0.22819000  0.72155000  0.03838000  1.0
  C  C190  1  0.76660000  0.32608000  0.48745000  1.0
  C  C191  1  0.22725000  0.38857000  0.87467000  1.0
  C  C192  1  0.76602000  0.70316000  0.49731000  1.0
  C  C193  1  0.83186000  0.48975000  0.80049000  1.0
  C  C194  1  0.74970000  0.15698000  0.66932000  1.0
  C  C195  1  0.45000000  0.50838000  0.27066000  1.0
  C  C196  1  0.62978000  0.29233000  0.48733000  1.0
  C  C197  1  0.31668000  0.51966000  0.68293000  1.0
  C  C198  1  0.24584000  0.68068000  0.18094000  1.0
  C  C199  1  0.31652000  0.51159000  0.17741000  1.0
  C  C200  1  0.63037000  0.23208000  0.48796000  1.0
  C  C201  1  0.25562000  0.49336000  0.66264000  1.0
  C  C202  1  0.86060000  0.38848000  0.48857000  1.0
  C  C203  1  0.45149000  0.51182000  0.21200000  1.0
  C  C204  1  0.20426000  0.85276000  0.47377000  1.0
  C  C205  1  0.32500000  0.48091000  0.31509000  1.0
  C  C206  1  0.85157000  0.38927000  0.86936000  1.0
  C  C207  1  0.34010000  0.49114000  0.13886000  1.0
  C  C208  1  0.71299000  0.98369000  0.31426000  1.0
  C  C209  1  0.36021000  0.73201000  0.20999000  1.0
  C  C210  1  0.73104000  0.95834000  0.65344000  1.0
  C  C211  1  0.71159000  0.73357000  0.21083000  1.0
  C  C212  1  0.24668000  0.82491000  0.32353000  1.0
  C  C213  1  0.45242000  0.51769000  0.71512000  1.0
  C  C214  1  0.49476000  0.50948000  0.30019000  1.0
  C  C215  1  0.30054000  0.01371000  0.54925000  1.0
  C  C216  1  0.22791000  0.39739000  0.04903000  1.0
  C  C217  1  0.30794000  0.74023000  0.69385000  1.0
  C  C218  1  0.16826000  0.50743000  0.39674000  1.0
  C  C219  1  0.58665000  0.51045000  0.80016000  1.0
  C  C220  1  0.35595000  0.33995000  0.16115000  1.0
  C  C221  1  0.83260000  0.82283000  0.32070000  1.0
  C  C222  1  0.63005000  0.51074000  0.21209000  1.0
  C  C223  1  0.57801000  0.82007000  0.30329000  1.0
  C  C224  1  0.21574000  0.89159000  0.50018000  1.0
  C  C225  1  0.77915000  0.89703000  0.35543000  1.0
  C  C226  1  0.79663000  0.48173000  0.34728000  1.0
  C  C227  1  0.87830000  0.85435000  0.47351000  1.0
  C  C228  1  0.45305000  0.51553000  0.77445000  1.0
  C  C229  1  0.19140000  0.65195000  0.99308000  1.0
  C  C230  1  0.18381000  0.38301000  0.01126000  1.0
  C  C231  1  0.84398000  0.64301000  0.98647000  1.0
  C  C232  1  0.21239000  0.49371000  0.63268000  1.0
  C  C233  1  0.29184000  0.53973000  0.87750000  1.0
  C  C234  1  0.27986000  0.48085000  0.34485000  1.0
  C  C235  1  0.33432000  0.15989000  0.46260000  1.0
  C  C236  1  0.85759000  0.01789000  0.39972000  1.0
  C  C237  1  0.27694000  0.89906000  0.52700000  1.0
  C  C238  1  0.49577000  0.51689000  0.74482000  1.0
  C  C239  1  0.89867000  0.01247000  0.63122000  1.0
  C  C240  1  0.31213000  0.32544000  0.81030000  1.0
  C  C241  1  0.36669000  0.51642000  0.77603000  1.0
  C  C242  1  0.33475000  0.68528000  0.13794000  1.0
  C  C243  1  0.70183000  0.29793000  0.91686000  1.0
  C  C244  1  0.26434000  0.79113000  0.08424000  1.0
  C  C245  1  0.91855000  0.01292000  0.59578000  1.0
  C  C246  1  0.33485000  0.54080000  0.84774000  1.0
  C  C247  1  0.20585000  0.85655000  0.35364000  1.0
  C  C248  1  0.28851000  0.89855000  0.34415000  1.0
  C  C249  1  0.58650000  0.50880000  0.24116000  1.0
  C  C250  1  0.94328000  0.15508000  0.29080000  1.0
  C  C251  1  0.31058000  0.82912000  0.30313000  1.0
  C  C252  1  0.18353000  0.42135000  0.90942000  1.0
  C  C253  1  0.74057000  0.68597000  0.13869000  1.0
  C  C254  1  0.49492000  0.82525000  0.49635000  1.0
  C  C255  1  0.20558000  0.53393000  0.35245000  1.0
  C  C256  1  0.45054000  0.79786000  0.49934000  1.0
  C  C257  1  0.88103000  0.17669000  0.51129000  1.0
  C  C258  1  0.75621000  0.50899000  0.24156000  1.0
  C  C259  1  0.71792000  0.51392000  0.77391000  1.0
  C  C260  1  0.36610000  0.51829000  0.71484000  1.0
  C  C261  1  0.57404000  0.20450000  0.87534000  1.0
  C  C262  1  0.28709000  0.38242000  0.09791000  1.0
  C  C263  1  0.87194000  0.65338000  0.47062000  1.0
  C  C264  1  0.32412000  0.26238000  0.48923000  1.0
  C  C265  1  0.22195000  0.38451000  0.48210000  1.0
  C  C266  1  0.27794000  0.36102000  0.45416000  1.0
  C  C267  1  0.18270000  0.92958000  0.39766000  1.0
  C  C268  1  0.48905000  0.76385000  0.24141000  1.0
  C  C269  1  0.74662000  0.48489000  0.13885000  1.0
  C  C270  1  0.94785000  0.33695000  0.36484000  1.0
  C  C271  1  0.49525000  0.32152000  0.48868000  1.0
  C  C272  1  0.62468000  0.29203000  0.77368000  1.0
  C  C273  1  0.75797000  0.51308000  0.74236000  1.0
  C  C274  1  0.80704000  0.98252000  0.65985000  1.0
  C  C275  1  0.76590000  0.83167000  0.49755000  1.0
  C  C276  1  0.35973000  0.29266000  0.77668000  1.0
  C  C277  1  0.79954000  0.54019000  0.63697000  1.0
  C  C278  1  0.92654000  0.36730000  0.35444000  1.0
  C  C279  1  0.95447000  0.19570000  0.32321000  1.0
  C  C280  1  0.58215000  0.63583000  0.65097000  1.0
  C  C281  1  0.49446000  0.76798000  0.49964000  1.0
  C  C282  1  0.51168000  0.35977000  0.38415000  1.0
  C  C283  1  0.90311000  0.51081000  0.08304000  1.0
  C  C284  1  0.71693000  0.73618000  0.49738000  1.0
  C  C285  1  0.71110000  0.29261000  0.77496000  1.0
  C  C286  1  0.41292000  0.65742000  0.72581000  1.0
  C  C287  1  0.23893000  0.36704000  0.06065000  1.0
  C  C288  1  0.21212000  0.37637000  0.51173000  1.0
  C  C289  1  0.85138000  0.89108000  0.36955000  1.0
  C  C290  1  0.62972000  0.79783000  0.49800000  1.0
  C  C291  1  0.24843000  0.02522000  0.30287000  1.0
  C  C292  1  0.30902000  0.78388000  0.71753000  1.0
  C  C293  1  0.83184000  0.53289000  0.18404000  1.0
  C  C294  1  0.66786000  0.94586000  0.29043000  1.0
  C  C295  1  0.76652000  0.51375000  0.67887000  1.0
  C  C296  1  0.93539000  0.29620000  0.33181000  1.0
  C  C297  1  0.85664000  0.51203000  0.61546000  1.0
  C  C298  1  0.33237000  0.33852000  0.84852000  1.0
  C  C299  1  0.36349000  0.50872000  0.27130000  1.0
  C  C300  1  0.36579000  0.73667000  0.49998000  1.0
  C  C301  1  0.79179000  0.53862000  0.87568000  1.0
  C  C302  1  0.31667000  0.19817000  0.48855000  1.0
  C  C303  1  0.45144000  0.23252000  0.48919000  1.0
  C  C304  1  0.34704000  0.36853000  0.14755000  1.0
  C  C305  1  0.21016000  0.17272000  0.51286000  1.0
  C  C306  1  0.57801000  0.20014000  0.68741000  1.0
  C  C307  1  0.54858000  0.06456000  0.68557000  1.0
  C  C308  1  0.18672000  0.60213000  0.07697000  1.0
  C  C309  1  0.76510000  0.50770000  0.30467000  1.0
  C  C310  1  0.90579000  0.51150000  0.58260000  1.0
  C  C311  1  0.87484000  0.53344000  0.15407000  1.0
  C  C312  1  0.76694000  0.51442000  0.80693000  1.0
  C  C313  1  0.57946000  0.32356000  0.79882000  1.0
  C  C314  1  0.58045000  0.33781000  0.38984000  1.0
  C  C315  1  0.16786000  0.10266000  0.58930000  1.0
  C  C316  1  0.79462000  0.37134000  0.46422000  1.0
  C  C317  1  0.45043000  0.29195000  0.48735000  1.0
  C  C318  1  0.73711000  0.34399000  0.84633000  1.0
  C  C319  1  0.76089000  0.70125000  0.17741000  1.0
  C  C320  1  0.90261000  0.60520000  0.49333000  1.0
  C  C321  1  0.39425000  0.04450000  0.60460000  1.0
  C  C322  1  0.83283000  0.33980000  0.80139000  1.0
  C  C323  1  0.22666000  0.51393000  0.11590000  1.0
  C  C324  1  0.82073000  0.20318000  0.66168000  1.0
  C  C325  1  0.17381000  0.61539000  0.99162000  1.0
  C  C326  1  0.63060000  0.73718000  0.49777000  1.0
  C  C327  1  0.90105000  0.42197000  0.90181000  1.0
  C  C328  1  0.22600000  0.89450000  0.36516000  1.0
  C  C329  1  0.58700000  0.26184000  0.48702000  1.0
  C  C330  1  0.31382000  0.32430000  0.48580000  1.0
  C  C331  1  0.84084000  0.37943000  0.99165000  1.0
  C  C332  1  0.31787000  0.51626000  0.80888000  1.0
  C  C333  1  0.89970000  0.60537000  0.08236000  1.0
  C  C334  1  0.42747000  0.03866000  0.24743000  1.0
  C  C335  1  0.45192000  0.64595000  0.68764000  1.0
  C  C336  1  0.75008000  0.68931000  0.52240000  1.0
  C  C337  1  0.83553000  0.20563000  0.51009000  1.0
  C  C338  1  0.63161000  0.51418000  0.77330000  1.0
  C  C339  1  0.91136000  0.42106000  0.48924000  1.0
  C  C340  1  0.70633000  0.95605000  0.68875000  1.0
  C  C341  1  0.87554000  0.41345000  0.99215000  1.0
  C  C342  1  0.32476000  0.76743000  0.49990000  1.0
  C  C343  1  0.54359000  0.65012000  0.69019000  1.0
  C  C344  1  0.75684000  0.76713000  0.49679000  1.0
  C  C345  1  0.61055000  0.94679000  0.26123000  1.0
  C  C346  1  0.36407000  0.79862000  0.49996000  1.0
  C  C347  1  0.75669000  0.26216000  0.48739000  1.0
  C  C348  1  0.49376000  0.50908000  0.24096000  1.0
  C  C349  1  0.17877000  0.41759000  0.48037000  1.0
  C  C350  1  0.71055000  0.22873000  0.71418000  1.0
  C  C351  1  0.55424000  0.81216000  0.07331000  1.0
  C  C352  1  0.69287000  0.72496000  0.04936000  1.0
  C  C353  1  0.31903000  0.47256000  0.44505000  1.0
  C  C354  1  0.28665000  0.54738000  0.64179000  1.0
  C  C355  1  0.90115000  0.92374000  0.40203000  1.0
  C  C356  1  0.93749000  0.40567000  0.38809000  1.0
  C  C357  1  0.26333000  0.75033000  0.07749000  1.0
  C  C358  1  0.58064000  0.70277000  0.18569000  1.0
  C  C359  1  0.58334000  0.82497000  0.49525000  1.0
  C  C360  1  0.33437000  0.69020000  0.52519000  1.0
  C  C361  1  0.16770000  0.41512000  0.00439000  1.0
  C  C362  1  0.32887000  0.86709000  0.31411000  1.0
  C  C363  1  0.44602000  0.29199000  0.77469000  1.0
  C  C364  1  0.32397000  0.86979000  0.52702000  1.0
  C  C365  1  0.49758000  0.70705000  0.49561000  1.0
  C  C366  1  0.75096000  0.26081000  0.74427000  1.0
  C  C367  1  0.79463000  0.12962000  0.46609000  1.0
  C  C368  1  0.65069000  0.75595000  0.04442000  1.0
  C  C369  1  0.87683000  0.37030000  0.83107000  1.0
  C  C370  1  0.85480000  0.51001000  0.11540000  1.0
  C  C371  1  0.62084000  0.08880000  0.74895000  1.0
  C  C372  1  0.31705000  0.70418000  0.50043000  1.0
  C  C373  1  0.62892000  0.93272000  0.68200000  1.0
  C  C374  1  0.20559000  0.64970000  0.14977000  1.0
  C  C375  1  0.78928000  0.48560000  0.10884000  1.0
  C  C376  1  0.32611000  0.51721000  0.74542000  1.0
  C  C377  1  0.22990000  0.63511000  0.11174000  1.0
  C  C378  1  0.95178000  0.26628000  0.34372000  1.0
  C  C379  1  0.22977000  0.13449000  0.48743000  1.0
  C  C380  1  0.90398000  0.51296000  0.90159000  1.0
  C  C381  1  0.87857000  0.37299000  0.51200000  1.0
  C  C382  1  0.36498000  0.23151000  0.48934000  1.0
  C  C383  1  0.51032000  0.90920000  0.20799000  1.0
  C  C384  1  0.31881000  0.26109000  0.74642000  1.0
  C  C385  1  0.22672000  0.52055000  0.62098000  1.0
  C  C386  1  0.29830000  0.49330000  0.10948000  1.0
  C  C387  1  0.58567000  0.51643000  0.18636000  1.0
  C  C388  1  0.26653000  0.20119000  0.65681000  1.0
  C  C389  1  0.74702000  0.87065000  0.52059000  1.0
  C  C390  1  0.83347000  0.34288000  0.51137000  1.0
  C  C391  1  0.60009000  0.93229000  0.71734000  1.0
  C  C392  1  0.17848000  0.51370000  0.90273000  1.0
  C  C393  1  0.38870000  0.79931000  0.73905000  1.0
  C  C394  1  0.33453000  0.03307000  0.29457000  1.0
  C  C395  1  0.25144000  0.68661000  0.47608000  1.0
  C  C396  1  0.87783000  0.61104000  0.99001000  1.0
  C  C397  1  0.58180000  0.76423000  0.24177000  1.0
  C  C398  1  0.18511000  0.09999000  0.48523000  1.0
  C  C399  1  0.48982000  0.82060000  0.30228000  1.0
  C  C400  1  0.49252000  0.70227000  0.18562000  1.0
  C  C401  1  0.47236000  0.04061000  0.62263000  1.0
  C  C402  1  0.93989000  0.22536000  0.31088000  1.0
  C  C403  1  0.16744000  0.92343000  0.49837000  1.0
  C  C404  1  0.75612000  0.54110000  0.66757000  1.0
  C  C405  1  0.82947000  0.68437000  0.47180000  1.0
  C  C406  1  0.75457000  0.31995000  0.95263000  1.0
  C  C407  1  0.61377000  0.23936000  0.87759000  1.0
  C  C408  1  0.48219000  0.07282000  0.66428000  1.0
  C  C409  1  0.71647000  0.29329000  0.48734000  1.0
  C  C410  1  0.75211000  0.48131000  0.31710000  1.0
  C  C411  1  0.86567000  0.17385000  0.63147000  1.0
  C  C412  1  0.34306000  0.02804000  0.25458000  1.0
  C  C413  1  0.85565000  0.51343000  0.86917000  1.0
  C  C414  1  0.71639000  0.79872000  0.49757000  1.0
  C  C415  1  0.87460000  0.48924000  0.83052000  1.0
  C  C416  1  0.71092000  0.79562000  0.27359000  1.0
  C  C417  1  0.36506000  0.51116000  0.21029000  1.0
  C  C418  1  0.71686000  0.23077000  0.48712000  1.0
  C  C419  1  0.44538000  0.79372000  0.27151000  1.0
  C  C420  1  0.76059000  0.32570000  0.80775000  1.0
  C  C421  1  0.24487000  0.53241000  0.18380000  1.0
  C  C422  1  0.76720000  0.19799000  0.48708000  1.0
  C  C423  1  0.57197000  0.90788000  0.23500000  1.0
  C  C424  1  0.63113000  0.51558000  0.71360000  1.0
  C  C425  1  0.20134000  0.53337000  0.15415000  1.0
  C  C426  1  0.87676000  0.85279000  0.35088000  1.0
  C  C427  1  0.58378000  0.32213000  0.48964000  1.0
  C  C428  1  0.30530000  0.15952000  0.67893000  1.0
  C  C429  1  0.29191000  0.36904000  0.87944000  1.0
  C  C430  1  0.20782000  0.65639000  0.47562000  1.0
  C  C431  1  0.31291000  0.50786000  0.30332000  1.0
  C  C432  1  0.49762000  0.51768000  0.18680000  1.0
  C  C433  1  0.85061000  0.63824000  0.11481000  1.0
  C  C434  1  0.58721000  0.76795000  0.49900000  1.0
  C  C435  1  0.35906000  0.79492000  0.27155000  1.0
  C  C436  1  0.22677000  0.64160000  0.49951000  1.0
  C  C437  1  0.85786000  0.89312000  0.49561000  1.0
  C  C438  1  0.79442000  0.12752000  0.63883000  1.0
  C  C439  1  0.45204000  0.73737000  0.49914000  1.0
  C  C440  1  0.62403000  0.22920000  0.71572000  1.0
  C  C441  1  0.49139000  0.32329000  0.79987000  1.0
  C  C442  1  0.58136000  0.26029000  0.74534000  1.0
  C  C443  1  0.62429000  0.79401000  0.27274000  1.0
  C  C444  1  0.14382000  0.66511000  0.63307000  1.0
  C  C445  1  0.76021000  0.82886000  0.30643000  1.0
  C  C446  1  0.74997000  0.34103000  0.46343000  1.0
  C  C447  1  0.85137000  0.60330000  0.58445000  1.0
  C  C448  1  0.83066000  0.98423000  0.62412000  1.0
  C  C449  1  0.58324000  0.50947000  0.30049000  1.0
  C  C450  1  0.32411000  0.51014000  0.24074000  1.0
  C  C451  1  0.78956000  0.35653000  0.95600000  1.0
  C  C452  1  0.62529000  0.73375000  0.21211000  1.0
  C  C453  1  0.58547000  0.51477000  0.68448000  1.0
  C  C454  1  0.87188000  0.53418000  0.35391000  1.0
  C  C455  1  0.14954000  0.02015000  0.38676000  1.0
  C  C456  1  0.66483000  0.26175000  0.91373000  1.0
  C  C457  1  0.38446000  0.01409000  0.56246000  1.0
  C  C458  1  0.75144000  0.76473000  0.24218000  1.0
  C  C459  1  0.25289000  0.49148000  0.80204000  1.0
  C  C460  1  0.20960000  0.49052000  0.83175000  1.0
  C  C461  1  0.71628000  0.50952000  0.21068000  1.0
  C  C462  1  0.39213000  0.84256000  0.76068000  1.0
  C  C463  1  0.62911000  0.50811000  0.27114000  1.0
  C  C464  1  0.49709000  0.20570000  0.49268000  1.0
  C  C465  1  0.48868000  0.26043000  0.74578000  1.0
  C  C466  1  0.73683000  0.86743000  0.32423000  1.0
  C  C467  1  0.15496000  0.02207000  0.35120000  1.0
  C  C468  1  0.30950000  0.19634000  0.68383000  1.0
  C  C469  1  0.22289000  0.17121000  0.62665000  1.0
  C  C470  1  0.85413000  0.63871000  0.49478000  1.0
  C  C471  1  0.29600000  0.65396000  0.10710000  1.0
  C  C472  1  0.31277000  0.69923000  0.17614000  1.0
  C  C473  1  0.90820000  0.92503000  0.49465000  1.0
  C  C474  1  0.43808000  0.03146000  0.20712000  1.0
  C  C475  1  0.41868000  0.41757000  0.41503000  1.0
  C  C476  1  0.82920000  0.68460000  0.18353000  1.0
  C  C477  1  0.76183000  0.98391000  0.34645000  1.0
  C  C478  1  0.58534000  0.20552000  0.49213000  1.0
  C  C479  1  0.74816000  0.69967000  0.01558000  1.0
  C  C480  1  0.22781000  0.51443000  0.87056000  1.0
  C  C481  1  0.74946000  0.15873000  0.46441000  1.0
  C  C482  1  0.29143000  0.65958000  0.52437000  1.0
  C  C483  1  0.59909000  0.78268000  0.07900000  1.0
  C  C484  1  0.81338000  0.01942000  0.36857000  1.0
  C  C485  1  0.20542000  0.37516000  0.83652000  1.0
  C  C486  1  0.22816000  0.68159000  0.64613000  1.0
  C  C487  1  0.35881000  0.22918000  0.71610000  1.0
  C  C488  1  0.48550000  0.39517000  0.42148000  1.0
  C  C489  1  0.71445000  0.62279000  0.61470000  1.0
  C  C490  1  0.85795000  0.50834000  0.36689000  1.0
  C  C491  1  0.49716000  0.51591000  0.68528000  1.0
  C  C492  1  0.49847000  0.51116000  0.80076000  1.0
  C  C493  1  0.17796000  0.52041000  0.58834000  1.0
  C  C494  1  0.22571000  0.72443000  0.67536000  1.0
  C  C495  1  0.67324000  0.64293000  0.65371000  1.0
  C  C496  1  0.48951000  0.19999000  0.68821000  1.0
  C  C497  1  0.79018000  0.90015000  0.51902000  1.0
  C  C498  1  0.21885000  0.50749000  0.36468000  1.0
  C  C499  1  0.29720000  0.35299000  0.11084000  1.0
  C  C500  1  0.25074000  0.53401000  0.32274000  1.0
  C  C501  1  0.78277000  0.65506000  0.10861000  1.0
  C  C502  1  0.25602000  0.34697000  0.51330000  1.0
  C  C503  1  0.29322000  0.12927000  0.46239000  1.0
  C  C504  1  0.58568000  0.70689000  0.49476000  1.0
  C  C505  1  0.60498000  0.30209000  0.35261000  1.0
  C  C506  1  0.14349000  0.62595000  0.59972000  1.0
  C  C507  1  0.21857000  0.13439000  0.62163000  1.0
  C  C508  1  0.58839000  0.51599000  0.74411000  1.0
  C  C509  1  0.77950000  0.37531000  0.87569000  1.0
  O  O510  1  0.13628000  0.04302000  0.50140000  1.0
  O  O511  1  0.03811000  0.57505000  0.02691000  1.0
  O  O512  1  0.00377000  0.42008000  0.40234000  1.0
  O  O513  1  0.82594000  0.01887000  0.42819000  1.0
  O  O514  1  0.87944000  0.49095000  0.04780000  1.0
  O  O515  1  0.15398000  0.97997000  0.46991000  1.0
  O  O516  1  0.87899000  0.58872000  0.51218000  1.0
  O  O517  1  0.92975000  0.49593000  0.95858000  1.0
  O  O518  1  0.98778000  0.01067000  0.58288000  1.0
  O  O519  1  0.03922000  0.53987000  0.95865000  1.0
  O  O520  1  0.11561000  0.10789000  0.56988000  1.0
  O  O521  1  0.03781000  0.45089000  0.95894000  1.0
  O  O522  1  0.21303000  0.58887000  0.04283000  1.0
  O  O523  1  0.19682000  0.54318000  0.57544000  1.0
  O  O524  1  0.05918000  0.45458000  0.46674000  1.0
  O  O525  1  0.89203000  0.48632000  0.41247000  1.0
  O  O526  1  0.88158000  0.42731000  0.40719000  1.0
  O  O527  1  0.20240000  0.53298000  0.93797000  1.0
  O  O528  1  0.92641000  0.60245000  0.58302000  1.0
  O  O529  1  0.97055000  0.49154000  0.57184000  1.0
  O  O530  1  0.93208000  0.01479000  0.40069000  1.0
  O  O531  1  0.03303000  0.57571000  0.52058000  1.0
  O  O532  1  0.20617000  0.96385000  0.40896000  1.0
  O  O533  1  0.20712000  0.43326000  0.94373000  1.0
  O  O534  1  0.23956000  0.01143000  0.56600000  1.0
  O  O535  1  0.17647000  0.06646000  0.57299000  1.0
  O  O536  1  0.96586000  0.53372000  0.41369000  1.0
  O  O537  1  0.11470000  0.53148000  0.41644000  1.0
  O  O538  1  0.97253000  0.12034000  0.51719000  1.0
  O  O539  1  0.88750000  0.06765000  0.57157000  1.0
  O  O540  1  0.14956000  0.49565000  0.95965000  1.0
  O  O541  1  0.20226000  0.49585000  0.04849000  1.0
  O  O542  1  0.03954000  0.04342000  0.46782000  1.0
  O  O543  1  0.08564000  0.01584000  0.40013000  1.0
  O  O544  1  0.15061000  0.53749000  0.48192000  1.0
  O  O545  1  0.93781000  0.49320000  0.50603000  1.0
  O  O546  1  0.05375000  0.04826000  0.55276000  1.0
  O  O547  1  0.86804000  0.01618000  0.57489000  1.0
  O  O548  1  0.12351000  0.92800000  0.41673000  1.0
  O  O549  1  0.25883000  0.44871000  0.42186000  1.0
  O  O550  1  0.22484000  0.59442000  0.99461000  1.0
  O  O551  1  0.93340000  0.04872000  0.51147000  1.0
  O  O552  1  0.03597000  0.98018000  0.42916000  1.0
  O  O553  1  0.20870000  0.06578000  0.46249000  1.0
  O  O554  1  0.03463000  0.54149000  0.55425000  1.0
  O  O555  1  0.96402000  0.11424000  0.57284000  1.0
  O  O556  1  0.08055000  0.60887000  0.58413000  1.0
  O  O557  1  0.27858000  0.49739000  0.47805000  1.0
  O  O558  1  0.88137000  0.53078000  0.56665000  1.0
  O  O559  1  0.96709000  0.91464000  0.41212000  1.0
  O  O560  1  0.93514000  0.98108000  0.47740000  1.0
  O  O561  1  0.96713000  0.49183000  0.89236000  1.0
  O  O562  1  0.20308000  0.60609000  0.58222000  1.0
  O  O563  1  0.90910000  0.07101000  0.47471000  1.0
  O  O564  1  0.95091000  0.60559000  0.99222000  1.0
  O  O565  1  0.19415000  0.42530000  0.45389000  1.0
  O  O566  1  0.87639000  0.58940000  0.04700000  1.0
  O  O567  1  0.21986000  0.43658000  0.00314000  1.0
  O  O568  1  0.09972000  0.42510000  0.99998000  1.0
  O  O569  1  0.96602000  0.53202000  0.09239000  1.0
  O  O570  1  0.05778000  0.48849000  0.43386000  1.0
  O  O571  1  0.83761000  0.58495000  0.98980000  1.0
  O  O572  1  0.88029000  0.53309000  0.93686000  1.0
  O  O573  1  0.12300000  0.43952000  0.90744000  1.0
  O  O574  1  0.93549000  0.52699000  0.47233000  1.0
  O  O575  1  0.15329000  0.50355000  0.51612000  1.0
  O  O576  1  0.96652000  0.59446000  0.47286000  1.0
  O  O577  1  0.89117000  0.43573000  0.46823000  1.0
  O  O578  1  0.19992000  0.59393000  0.51932000  1.0
  O  O579  1  0.12324000  0.58550000  0.07880000  1.0
  O  O580  1  0.87590000  0.43852000  0.93694000  1.0
  O  O581  1  0.12628000  0.43976000  0.50422000  1.0
  O  O582  1  0.12822000  0.52831000  0.02341000  1.0
  O  O583  1  0.92729000  0.53023000  0.02679000  1.0
  O  O584  1  0.20717000  0.02222000  0.40740000  1.0
  O  O585  1  0.11418000  0.49325000  0.89341000  1.0
  O  O586  1  0.11953000  0.49639000  0.57415000  1.0
  O  O587  1  0.17931000  0.48756000  0.41290000  1.0
  O  O588  1  0.03877000  0.48889000  0.02178000  1.0
  O  O589  1  0.11052000  0.53287000  0.09256000  1.0
  O  O590  1  0.11978000  0.91405000  0.47000000  1.0
  O  O591  1  0.88750000  0.96072000  0.51539000  1.0
  O  O592  1  0.96669000  0.43239000  0.89281000  1.0
  O  O593  1  0.28027000  0.01534000  0.52034000  1.0
  O  O594  1  0.12420000  0.10214000  0.50542000  1.0
  O  O595  1  0.94883000  0.41991000  0.99201000  1.0
  O  O596  1  0.10502000  0.60197000  0.98853000  1.0
  O  O597  1  0.87631000  0.95901000  0.41841000  1.0
  O  O598  1  0.96983000  0.91501000  0.47236000  1.0
  O  O599  1  0.17590000  0.95863000  0.52512000  1.0
  O  O600  1  0.83547000  0.43969000  0.99264000  1.0
  O  O601  1  0.35102000  0.49268000  0.42898000  1.0
  O  O602  1  0.82269000  0.57540000  0.55527000  1.0
  O  O603  1  0.96346000  0.59423000  0.09185000  1.0
  O  O604  1  0.05341000  0.98045000  0.51834000  1.0
  O  O605  1  0.97258000  0.43361000  0.51175000  1.0
  O  O606  1  0.11617000  0.59646000  0.47656000  1.0
  F  F607  1  0.42260000  0.37810000  0.14160000  1.0
  F  F608  1  0.02938000  0.27036000  0.35670000  1.0
  F  F609  1  0.33475000  0.32138000  0.08261000  1.0
  F  F610  1  0.54006000  0.27834000  0.33744000  1.0
  F  F611  1  0.69453000  0.99206000  0.71871000  1.0
  F  F612  1  0.67883000  0.63354000  0.59106000  1.0
  F  F613  1  0.87559000  0.04846000  0.65794000  1.0
  F  F614  1  0.33029000  0.85742000  0.78629000  1.0
  F  F615  1  0.63052000  0.88227000  0.21357000  1.0
  F  F616  1  0.10988000  0.05241000  0.35601000  1.0
  F  F617  1  0.39865000  0.78703000  0.76469000  1.0
  F  F618  1  0.28719000  0.99733000  0.33964000  1.0
  F  F619  1  0.63540000  0.70273000  0.05295000  1.0
  F  F620  1  0.86643000  0.14960000  0.27686000  1.0
  F  F621  1  0.83671000  0.34716000  0.92483000  1.0
  F  F622  1  0.66143000  0.22750000  0.84608000  1.0
  F  F623  1  0.73799000  0.74187000  0.08201000  1.0
  F  F624  1  0.72321000  0.91735000  0.27178000  1.0
  F  F625  1  0.37250000  0.81041000  0.12847000  1.0
  F  F626  1  0.44899000  0.43189000  0.39333000  1.0
  F  F627  1  0.99214000  0.21869000  0.28207000  1.0
  F  F628  1  0.17146000  0.73094000  0.70344000  1.0
  F  F629  1  0.46337000  0.85419000  0.78011000  1.0
  F  F630  1  0.27168000  0.06021000  0.36957000  1.0
  F  F631  1  0.70428000  0.68430000  0.98258000  1.0
  F  F632  1  0.10441000  0.66422000  0.66226000  1.0
  F  F633  1  0.84792000  0.36346000  0.34284000  1.0
  F  F634  1  0.53420000  0.89486000  0.25632000  1.0
  F  F635  1  0.72750000  0.37925000  0.95694000  1.0
  F  F636  1  0.85543000  0.94883000  0.59665000  1.0
  F  F637  1  0.50061000  0.79492000  0.04392000  1.0
  F  F638  1  0.27227000  0.67622000  0.61528000  1.0
  F  F639  1  0.27495000  0.72114000  0.01036000  1.0
  F  F640  1  0.59298000  0.12843000  0.72371000  1.0
  F  F641  1  0.45855000  0.38386000  0.44617000  1.0
  F  F642  1  0.64593000  0.36128000  0.40431000  1.0
  F  F643  1  0.70644000  0.63000000  0.67607000  1.0
  F  F644  1  0.27855000  0.33644000  0.03214000  1.0
  F  F645  1  0.56810000  0.94744000  0.67044000  1.0
  F  F646  1  0.56281000  0.68768000  0.71347000  1.0
  F  F647  1  0.76491000  0.99448000  0.61081000  1.0
  F  F648  1  0.44162000  0.07645000  0.27216000  1.0
  F  F649  1  0.69120000  0.24883000  0.32374000  1.0
  F  F650  1  0.51257000  0.83589000  0.10570000  1.0
  F  F651  1  0.53610000  0.37082000  0.35888000  1.0
  F  F652  1  0.68720000  0.68128000  0.67056000  1.0
  F  F653  1  0.55651000  0.32721000  0.41550000  1.0
  F  F654  1  0.34055000  0.73982000  0.07995000  1.0
  F  F655  1  0.29967000  0.66987000  0.03597000  1.0
  F  F656  1  0.22265000  0.34254000  0.11691000  1.0
  F  F657  1  0.41122000  0.07794000  0.68347000  1.0
  F  F658  1  0.79344000  0.01858000  0.68920000  1.0
  F  F659  1  0.70765000  0.77710000  0.03884000  1.0
  F  F660  1  0.26440000  0.66220000  0.66163000  1.0
  F  F661  1  0.98628000  0.29011000  0.30273000  1.0
  F  F662  1  0.31200000  0.79212000  0.05719000  1.0
  F  F663  1  0.61728000  0.27181000  0.94493000  1.0
  F  F664  1  0.22439000  0.99006000  0.27454000  1.0
  F  F665  1  0.72678000  0.64423000  0.01981000  1.0
  F  F666  1  0.18770000  0.80135000  0.08051000  1.0
  F  F667  1  0.55101000  0.97282000  0.28034000  1.0
  F  F668  1  0.44691000  0.33591000  0.36890000  1.0
  F  F669  1  0.61901000  0.05661000  0.66542000  1.0
  F  F670  1  0.22298000  0.87175000  0.12622000  1.0
  F  F671  1  0.40186000  0.35556000  0.19346000  1.0
  F  F672  1  0.49117000  0.10920000  0.74538000  1.0
  F  F673  1  0.90625000  0.66497000  0.98609000  1.0
  F  F674  1  0.85779000  0.29226000  0.31892000  1.0
  F  F675  1  0.64083000  0.32111000  0.91772000  1.0
  F  F676  1  0.54346000  0.76200000  0.08602000  1.0
  F  F677  1  0.70916000  0.32928000  0.98427000  1.0
  F  F678  1  0.29747000  0.79835000  0.69377000  1.0
  F  F679  1  0.47168000  0.00618000  0.62125000  1.0
  F  F680  1  0.95695000  0.13041000  0.30393000  1.0
  F  F681  1  0.62379000  0.93786000  0.31411000  1.0
  F  F682  1  0.12173000  0.66493000  0.98542000  1.0
  F  F683  1  0.63262000  0.12044000  0.78377000  1.0
  F  F684  1  0.72539000  0.23867000  0.91346000  1.0
  F  F685  1  0.10075000  0.68762000  0.62316000  1.0
  F  F686  1  0.02688000  0.34152000  0.37610000  1.0
  F  F687  1  0.38674000  0.00871000  0.29782000  1.0
  F  F688  1  0.48153000  0.87330000  0.18458000  1.0
  F  F689  1  0.82896000  0.68212000  0.05262000  1.0
  F  F690  1  0.99646000  0.14700000  0.26198000  1.0
  F  F691  1  0.21825000  0.74961000  0.10541000  1.0
  F  F692  1  0.80413000  0.62802000  0.95249000  1.0
  F  F693  1  0.74798000  0.28800000  0.88529000  1.0
  F  F694  1  0.60240000  0.73890000  0.01285000  1.0
  F  F695  1  0.34955000  0.86274000  0.10517000  1.0
  F  F696  1  0.53400000  0.90921000  0.70833000  1.0
  F  F697  1  0.63080000  0.18017000  0.87553000  1.0
  F  F698  1  0.64731000  0.80156000  0.11042000  1.0
  F  F699  1  0.40047000  0.97874000  0.55726000  1.0
  F  F700  1  0.11200000  0.36664000  0.01176000  1.0
  F  F701  1  0.16466000  0.35525000  0.06535000  1.0
  F  F702  1  0.33083000  0.04179000  0.62475000  1.0
  F  F703  1  0.64218000  0.89590000  0.65393000  1.0
  F  F704  1  0.54440000  0.92241000  0.18610000  1.0
  F  F705  1  0.86985000  0.96734000  0.66974000  1.0
  F  F706  1  0.30215000  0.41011000  0.04567000  1.0
  F  F707  1  0.45181000  0.78603000  0.71397000  1.0
  F  F708  1  0.49980000  0.10592000  0.66447000  1.0
  F  F709  1  0.22973000  0.35650000  0.98198000  1.0
  F  F710  1  0.43011000  0.69453000  0.75172000  1.0
  F  F711  1  0.60683000  0.83354000  0.06583000  1.0
  F  F712  1  0.35707000  0.39323000  0.39522000  1.0
  F  F713  1  0.86279000  0.22135000  0.29735000  1.0
  F  F714  1  0.76736000  0.93946000  0.69802000  1.0
  F  F715  1  0.35462000  0.43719000  0.47455000  1.0
  F  F716  1  0.15201000  0.73283000  0.03547000  1.0
  F  F717  1  0.90083000  0.34275000  0.39500000  1.0
  F  F718  1  0.32765000  0.99084000  0.22807000  1.0
  F  F719  1  0.70371000  0.58437000  0.59909000  1.0
  F  F720  1  0.69357000  0.07769000  0.73095000  1.0
  F  F721  1  0.03137000  0.19919000  0.33680000  1.0
  F  F722  1  0.53675000  0.04129000  0.60191000  1.0
  F  F723  1  0.24708000  0.79592000  0.74328000  1.0
  F  F724  1  0.97506000  0.36400000  0.32568000  1.0
  F  F725  1  0.48444000  0.01789000  0.25349000  1.0
  F  F726  1  0.43697000  0.02116000  0.54072000  1.0
  F  F727  1  0.70943000  0.98180000  0.37142000  1.0
  F  F728  1  0.42949000  0.99360000  0.18118000  1.0
  F  F729  1  0.44705000  0.93217000  0.22781000  1.0
  F  F730  1  0.65217000  0.95814000  0.23948000  1.0
  F  F731  1  0.52249000  0.21487000  0.90527000  1.0
  F  F732  1  0.76586000  0.05115000  0.38385000  1.0
  F  F733  1  0.63065000  0.31230000  0.32688000  1.0
  F  F734  1  0.83782000  0.63422000  0.64932000  1.0
  F  F735  1  0.53095000  0.18568000  0.84227000  1.0
  F  F736  1  0.31114000  0.40055000  0.17602000  1.0
  F  F737  1  0.55429000  0.26220000  0.87652000  1.0
  F  F738  1  0.36185000  0.39346000  0.09281000  1.0
  F  F739  1  0.57381000  0.62963000  0.70588000  1.0
  F  F740  1  0.19991000  0.74339000  0.65728000  1.0
  F  F741  1  0.81504000  0.66675000  0.61975000  1.0
  F  F742  1  0.17539000  0.68121000  0.05969000  1.0
  F  F743  1  0.51368000  0.04258000  0.20334000  1.0
  F  F744  1  0.55046000  0.41866000  0.43765000  1.0
  F  F745  1  0.65883000  0.01311000  0.32984000  1.0
  F  F746  1  0.76385000  0.98922000  0.29088000  1.0
  F  F747  1  0.36566000  0.72859000  0.66610000  1.0
  F  F748  1  0.42129000  0.66826000  0.67427000  1.0
  F  F749  1  0.56730000  0.59761000  0.62904000  1.0
  F  F750  1  0.33119000  0.65351000  0.72141000  1.0
  F  F751  1  0.64867000  0.26739000  0.38230000  1.0
  F  F752  1  0.18516000  0.42727000  0.07684000  1.0
  F  F753  1  0.81191000  0.95295000  0.33150000  1.0
  F  F754  1  0.74464000  0.92229000  0.62381000  1.0
  F  F755  1  0.90190000  0.20164000  0.35168000  1.0
  F  F756  1  0.35514000  0.06959000  0.32113000  1.0
  F  F757  1  0.12187000  0.98945000  0.32241000  1.0
  F  F758  1  0.65880000  0.91872000  0.73107000  1.0
  F  F759  1  0.43167000  0.60901000  0.66257000  1.0
  F  F760  1  0.24782000  0.82017000  0.15124000  1.0
  F  F761  1  0.86831000  0.02197000  0.34475000  1.0
  F  F762  1  0.81670000  0.29706000  0.95124000  1.0
  F  F763  1  0.32443000  0.88492000  0.16644000  1.0
  F  F764  1  0.19772000  0.05195000  0.30306000  1.0
  F  F765  1  0.57861000  0.96809000  0.74512000  1.0
  F  F766  1  0.73967000  0.30187000  0.37228000  1.0
  F  F767  1  0.39236000  0.07956000  0.60740000  1.0
  F  F768  1  0.59051000  0.06055000  0.75447000  1.0
  F  F769  1  0.79476000  0.39138000  0.02359000  1.0
  F  F770  1  0.96600000  0.00284000  0.64401000  1.0
  F  F771  1  0.38302000  0.05182000  0.19947000  1.0
  F  F772  1  0.28750000  0.05052000  0.25019000  1.0
  F  F773  1  0.52692000  0.03325000  0.68802000  1.0
  F  F774  1  0.44615000  0.47552000  0.47206000  1.0
  F  F775  1  0.38783000  0.85640000  0.73614000  1.0
  F  F776  1  0.90244000  0.35744000  0.99250000  1.0
  F  F777  1  0.24830000  0.41367000  0.12603000  1.0
  F  F778  1  0.39312000  0.30756000  0.13408000  1.0
  F  F779  1  0.24672000  0.64558000  0.96551000  1.0
  F  F780  1  0.28230000  0.33071000  0.16936000  1.0
  F  F781  1  0.43940000  0.63471000  0.73961000  1.0
  F  F782  1  0.80802000  0.72174000  0.01342000  1.0
  F  F783  1  0.66866000  0.97393000  0.64376000  1.0
  F  F784  1  0.32600000  0.72578000  0.71706000  1.0
  F  F785  1  0.90078000  0.27253000  0.37283000  1.0
  F  F786  1  0.54777000  0.65394000  0.63364000  1.0
