# generated using pymatgen
data_K2Co4P5H84W30C60(N8O29)3
_symmetry_space_group_name_H-M   'P 1'
_cell_length_a   27.01900000
_cell_length_b   38.42700000
_cell_length_c   38.73800000
_cell_angle_alpha   90.00000000
_cell_angle_beta   90.00000000
_cell_angle_gamma   90.00000000
_symmetry_Int_Tables_number   1
_chemical_formula_structural   K2Co4P5H84W30C60(N8O29)3
_chemical_formula_sum   'K16 Co32 P40 H672 W240 C480 N192 O696'
_cell_volume   40220.08151939
_cell_formula_units_Z   8
loop_
 _symmetry_equiv_pos_site_id
 _symmetry_equiv_pos_as_xyz
  1  'x, y, z'
loop_
 _atom_site_type_symbol
 _atom_site_label
 _atom_site_symmetry_multiplicity
 _atom_site_fract_x
 _atom_site_fract_y
 _atom_site_fract_z
 _atom_site_occupancy
  K  K0  1  0.75830000  0.64393000  0.48481000  1.0
  K  K1  1  0.64970000  0.59880000  0.48200000  1.0
  K  K2  1  0.74170000  0.85607000  0.98481000  1.0
  K  K3  1  0.85030000  0.90120000  0.98200000  1.0
  K  K4  1  0.24170000  0.64393000  0.01519000  1.0
  K  K5  1  0.35030000  0.59880000  0.01800000  1.0
  K  K6  1  0.25830000  0.85607000  0.51519000  1.0
  K  K7  1  0.14970000  0.90120000  0.51800000  1.0
  K  K8  1  0.24170000  0.35607000  0.51519000  1.0
  K  K9  1  0.35030000  0.40120000  0.51800000  1.0
  K  K10  1  0.25830000  0.14393000  0.01519000  1.0
  K  K11  1  0.14970000  0.09880000  0.01800000  1.0
  K  K12  1  0.75830000  0.35607000  0.98481000  1.0
  K  K13  1  0.64970000  0.40120000  0.98200000  1.0
  K  K14  1  0.74170000  0.14393000  0.48481000  1.0
  K  K15  1  0.85030000  0.09880000  0.48200000  1.0
  Co  Co16  1  0.45828000  0.54628000  0.57617000  1.0
  Co  Co17  1  0.41130000  0.76256000  0.41929000  1.0
  Co  Co18  1  0.72281000  0.80431000  0.30688000  1.0
  Co  Co19  1  0.92176000  0.67644000  0.14097000  1.0
  Co  Co20  1  0.04172000  0.95372000  0.07617000  1.0
  Co  Co21  1  0.08870000  0.73744000  0.91929000  1.0
  Co  Co22  1  0.77719000  0.69569000  0.80688000  1.0
  Co  Co23  1  0.57824000  0.82356000  0.64097000  1.0
  Co  Co24  1  0.54172000  0.54628000  0.92383000  1.0
  Co  Co25  1  0.58870000  0.76256000  0.08071000  1.0
  Co  Co26  1  0.27719000  0.80431000  0.19312000  1.0
  Co  Co27  1  0.07824000  0.67644000  0.35903000  1.0
  Co  Co28  1  0.95828000  0.95372000  0.42383000  1.0
  Co  Co29  1  0.91130000  0.73744000  0.58071000  1.0
  Co  Co30  1  0.22281000  0.69569000  0.69312000  1.0
  Co  Co31  1  0.42176000  0.82356000  0.85903000  1.0
  Co  Co32  1  0.54172000  0.45372000  0.42383000  1.0
  Co  Co33  1  0.58870000  0.23744000  0.58071000  1.0
  Co  Co34  1  0.27719000  0.19569000  0.69312000  1.0
  Co  Co35  1  0.07824000  0.32356000  0.85903000  1.0
  Co  Co36  1  0.95828000  0.04628000  0.92383000  1.0
  Co  Co37  1  0.91130000  0.26256000  0.08071000  1.0
  Co  Co38  1  0.22281000  0.30431000  0.19312000  1.0
  Co  Co39  1  0.42176000  0.17644000  0.35903000  1.0
  Co  Co40  1  0.45828000  0.45372000  0.07617000  1.0
  Co  Co41  1  0.41130000  0.23744000  0.91929000  1.0
  Co  Co42  1  0.72281000  0.19569000  0.80688000  1.0
  Co  Co43  1  0.92176000  0.32356000  0.64097000  1.0
  Co  Co44  1  0.04172000  0.04628000  0.57617000  1.0
  Co  Co45  1  0.08870000  0.26256000  0.41929000  1.0
  Co  Co46  1  0.77719000  0.30431000  0.30688000  1.0
  Co  Co47  1  0.57824000  0.17644000  0.14097000  1.0
  P  P48  1  0.68490000  0.64493000  0.39720000  1.0
  P  P49  1  0.75920000  0.55878000  0.43110000  1.0
  P  P50  1  0.75590000  0.55854000  0.53640000  1.0
  P  P51  1  0.68090000  0.64442000  0.56920000  1.0
  P  P52  1  0.63620000  0.69803000  0.48300000  1.0
  P  P53  1  0.81510000  0.85507000  0.89720000  1.0
  P  P54  1  0.74080000  0.94122000  0.93110000  1.0
  P  P55  1  0.74410000  0.94146000  0.03640000  1.0
  P  P56  1  0.81910000  0.85558000  0.06920000  1.0
  P  P57  1  0.86380000  0.80197000  0.98300000  1.0
  P  P58  1  0.31510000  0.64493000  0.10280000  1.0
  P  P59  1  0.24080000  0.55878000  0.06890000  1.0
  P  P60  1  0.24410000  0.55854000  0.96360000  1.0
  P  P61  1  0.31910000  0.64442000  0.93080000  1.0
  P  P62  1  0.36380000  0.69803000  0.01700000  1.0
  P  P63  1  0.18490000  0.85507000  0.60280000  1.0
  P  P64  1  0.25920000  0.94122000  0.56890000  1.0
  P  P65  1  0.25590000  0.94146000  0.46360000  1.0
  P  P66  1  0.18090000  0.85558000  0.43080000  1.0
  P  P67  1  0.13620000  0.80197000  0.51700000  1.0
  P  P68  1  0.31510000  0.35507000  0.60280000  1.0
  P  P69  1  0.24080000  0.44122000  0.56890000  1.0
  P  P70  1  0.24410000  0.44146000  0.46360000  1.0
  P  P71  1  0.31910000  0.35558000  0.43080000  1.0
  P  P72  1  0.36380000  0.30197000  0.51700000  1.0
  P  P73  1  0.18490000  0.14493000  0.10280000  1.0
  P  P74  1  0.25920000  0.05878000  0.06890000  1.0
  P  P75  1  0.25590000  0.05854000  0.96360000  1.0
  P  P76  1  0.18090000  0.14442000  0.93080000  1.0
  P  P77  1  0.13620000  0.19803000  0.01700000  1.0
  P  P78  1  0.68490000  0.35507000  0.89720000  1.0
  P  P79  1  0.75920000  0.44122000  0.93110000  1.0
  P  P80  1  0.75590000  0.44146000  0.03640000  1.0
  P  P81  1  0.68090000  0.35558000  0.06920000  1.0
  P  P82  1  0.63620000  0.30197000  0.98300000  1.0
  P  P83  1  0.81510000  0.14493000  0.39720000  1.0
  P  P84  1  0.74080000  0.05878000  0.43110000  1.0
  P  P85  1  0.74410000  0.05854000  0.53640000  1.0
  P  P86  1  0.81910000  0.14442000  0.56920000  1.0
  P  P87  1  0.86380000  0.19803000  0.48300000  1.0
  H  H88  1  0.35710000  0.55050000  0.38730000  1.0
  H  H89  1  0.33050000  0.72180000  0.46150000  1.0
  H  H90  1  0.49850000  0.80840000  0.44560000  1.0
  H  H91  1  0.70700000  0.72970000  0.27900000  1.0
  H  H92  1  0.86920000  0.56270000  0.95860000  1.0
  H  H93  1  0.99100000  0.68030000  0.07920000  1.0
  H  H94  1  0.96240000  0.74160000  0.18250000  1.0
  H  H95  1  0.80540000  0.75580000  0.32970000  1.0
  H  H96  1  0.72090000  0.81410000  0.38570000  1.0
  H  H97  1  0.41300000  0.56280000  0.43390000  1.0
  H  H98  1  0.39890000  0.59610000  0.45510000  1.0
  H  H99  1  0.43540000  0.59900000  0.42370000  1.0
  H  H100  1  0.24100000  0.64480000  0.38050000  1.0
  H  H101  1  0.25540000  0.63400000  0.34280000  1.0
  H  H102  1  0.28490000  0.66350000  0.36170000  1.0
  H  H103  1  0.25770000  0.68790000  0.47130000  1.0
  H  H104  1  0.28390000  0.65360000  0.48350000  1.0
  H  H105  1  0.25320000  0.65390000  0.44910000  1.0
  H  H106  1  0.43640000  0.69350000  0.37180000  1.0
  H  H107  1  0.41820000  0.65480000  0.36990000  1.0
  H  H108  1  0.45770000  0.66570000  0.39750000  1.0
  H  H109  1  0.54830000  0.87970000  0.44390000  1.0
  H  H110  1  0.57730000  0.87120000  0.40980000  1.0
  H  H111  1  0.57330000  0.84320000  0.43910000  1.0
  H  H112  1  0.40700000  0.83150000  0.33660000  1.0
  H  H113  1  0.39120000  0.86480000  0.35720000  1.0
  H  H114  1  0.37100000  0.82820000  0.36810000  1.0
  H  H115  1  0.44130000  0.92890000  0.41600000  1.0
  H  H116  1  0.47100000  0.96320000  0.40850000  1.0
  H  H117  1  0.49760000  0.93130000  0.42560000  1.0
  H  H118  1  0.51690000  0.92700000  0.29700000  1.0
  H  H119  1  0.53400000  0.83930000  0.31150000  1.0
  H  H120  1  0.52190000  0.86500000  0.28130000  1.0
  H  H121  1  0.47920000  0.84390000  0.29900000  1.0
  H  H122  1  0.51820000  0.73790000  0.22200000  1.0
  H  H123  1  0.49220000  0.76750000  0.20080000  1.0
  H  H124  1  0.53060000  0.77700000  0.22960000  1.0
  H  H125  1  0.52030000  0.76260000  0.14270000  1.0
  H  H126  1  0.69750000  0.76940000  0.16040000  1.0
  H  H127  1  0.68760000  0.74800000  0.12670000  1.0
  H  H128  1  0.69390000  0.72880000  0.16210000  1.0
  H  H129  1  0.70740000  0.68830000  0.22420000  1.0
  H  H130  1  0.65430000  0.68600000  0.20810000  1.0
  H  H131  1  0.66290000  0.67540000  0.24680000  1.0
  H  H132  1  0.64520000  0.83700000  0.25440000  1.0
  H  H133  1  0.59310000  0.82250000  0.24390000  1.0
  H  H134  1  0.63300000  0.83010000  0.21550000  1.0
  H  H135  1  0.01920000  0.54150000  0.00330000  1.0
  H  H136  1  0.01430000  0.56400000  0.03690000  1.0
  H  H137  1  0.03130000  0.58140000  0.00230000  1.0
  H  H138  1  0.84320000  0.64030000  0.98430000  1.0
  H  H139  1  0.82890000  0.62170000  0.01890000  1.0
  H  H140  1  0.81160000  0.60610000  0.98350000  1.0
  H  H141  1  0.88610000  0.59420000  0.11120000  1.0
  H  H142  1  0.86550000  0.58770000  0.07400000  1.0
  H  H143  1  0.84950000  0.62100000  0.09450000  1.0
  H  H144  1  0.02140000  0.68300000  0.01990000  1.0
  H  H145  1  0.98760000  0.66220000  0.99420000  1.0
  H  H146  1  0.03350000  0.64410000  0.01110000  1.0
  H  H147  1  0.81550000  0.68260000  0.18500000  1.0
  H  H148  1  0.79900000  0.70110000  0.21920000  1.0
  H  H149  1  0.83120000  0.66730000  0.22090000  1.0
  H  H150  1  0.97010000  0.78630000  0.23630000  1.0
  H  H151  1  0.91860000  0.80450000  0.24080000  1.0
  H  H152  1  0.94580000  0.80590000  0.20510000  1.0
  H  H153  1  0.74750000  0.80040000  0.23000000  1.0
  H  H154  1  0.77800000  0.77640000  0.20510000  1.0
  H  H155  1  0.80060000  0.81160000  0.21790000  1.0
  H  H156  1  0.90910000  0.71710000  0.29480000  1.0
  H  H157  1  0.86290000  0.69320000  0.30100000  1.0
  H  H158  1  0.87830000  0.72070000  0.32900000  1.0
  H  H159  1  0.87040000  0.82350000  0.32290000  1.0
  H  H160  1  0.86340000  0.86400000  0.32270000  1.0
  H  H161  1  0.82720000  0.84020000  0.30160000  1.0
  H  H162  1  0.73570000  0.84980000  0.44640000  1.0
  H  H163  1  0.79170000  0.85770000  0.45360000  1.0
  H  H164  1  0.77210000  0.81930000  0.45540000  1.0
  H  H165  1  0.91820000  0.80010000  0.43230000  1.0
  H  H166  1  0.86880000  0.80730000  0.45230000  1.0
  H  H167  1  0.91950000  0.81970000  0.46770000  1.0
  H  H168  1  0.95000000  0.87840000  0.45310000  1.0
  H  H169  1  0.85480000  0.94770000  0.38250000  1.0
  H  H170  1  0.81900000  0.91910000  0.36800000  1.0
  H  H171  1  0.87100000  0.92490000  0.35090000  1.0
  H  H172  1  0.14290000  0.94950000  0.88730000  1.0
  H  H173  1  0.16950000  0.77820000  0.96150000  1.0
  H  H174  1  0.00150000  0.69160000  0.94560000  1.0
  H  H175  1  0.79300000  0.77030000  0.77900000  1.0
  H  H176  1  0.63080000  0.93730000  0.45860000  1.0
  H  H177  1  0.50900000  0.81970000  0.57920000  1.0
  H  H178  1  0.53760000  0.75840000  0.68250000  1.0
  H  H179  1  0.69460000  0.74420000  0.82970000  1.0
  H  H180  1  0.77910000  0.68590000  0.88570000  1.0
  H  H181  1  0.08700000  0.93720000  0.93390000  1.0
  H  H182  1  0.10110000  0.90390000  0.95510000  1.0
  H  H183  1  0.06460000  0.90100000  0.92370000  1.0
  H  H184  1  0.25900000  0.85520000  0.88050000  1.0
  H  H185  1  0.24460000  0.86600000  0.84280000  1.0
  H  H186  1  0.21510000  0.83650000  0.86170000  1.0
  H  H187  1  0.24230000  0.81210000  0.97130000  1.0
  H  H188  1  0.21610000  0.84640000  0.98350000  1.0
  H  H189  1  0.24680000  0.84610000  0.94910000  1.0
  H  H190  1  0.06360000  0.80650000  0.87180000  1.0
  H  H191  1  0.08180000  0.84520000  0.86990000  1.0
  H  H192  1  0.04230000  0.83430000  0.89750000  1.0
  H  H193  1  0.95170000  0.62030000  0.94390000  1.0
  H  H194  1  0.92270000  0.62880000  0.90980000  1.0
  H  H195  1  0.92670000  0.65680000  0.93910000  1.0
  H  H196  1  0.09300000  0.66850000  0.83660000  1.0
  H  H197  1  0.10880000  0.63520000  0.85720000  1.0
  H  H198  1  0.12900000  0.67180000  0.86810000  1.0
  H  H199  1  0.05870000  0.57110000  0.91600000  1.0
  H  H200  1  0.02900000  0.53680000  0.90850000  1.0
  H  H201  1  0.00240000  0.56870000  0.92560000  1.0
  H  H202  1  0.98310000  0.57300000  0.79700000  1.0
  H  H203  1  0.96600000  0.66070000  0.81150000  1.0
  H  H204  1  0.97810000  0.63500000  0.78130000  1.0
  H  H205  1  0.02080000  0.65610000  0.79900000  1.0
  H  H206  1  0.98180000  0.76210000  0.72200000  1.0
  H  H207  1  0.00780000  0.73250000  0.70080000  1.0
  H  H208  1  0.96940000  0.72300000  0.72960000  1.0
  H  H209  1  0.97970000  0.73740000  0.64270000  1.0
  H  H210  1  0.80250000  0.73060000  0.66040000  1.0
  H  H211  1  0.81240000  0.75200000  0.62670000  1.0
  H  H212  1  0.80610000  0.77120000  0.66210000  1.0
  H  H213  1  0.79260000  0.81170000  0.72420000  1.0
  H  H214  1  0.84570000  0.81400000  0.70810000  1.0
  H  H215  1  0.83710000  0.82460000  0.74680000  1.0
  H  H216  1  0.85480000  0.66300000  0.75440000  1.0
  H  H217  1  0.90690000  0.67750000  0.74390000  1.0
  H  H218  1  0.86700000  0.66990000  0.71550000  1.0
  H  H219  1  0.48080000  0.95850000  0.50330000  1.0
  H  H220  1  0.48570000  0.93600000  0.53690000  1.0
  H  H221  1  0.46870000  0.91860000  0.50230000  1.0
  H  H222  1  0.65680000  0.85970000  0.48430000  1.0
  H  H223  1  0.67110000  0.87830000  0.51890000  1.0
  H  H224  1  0.68840000  0.89390000  0.48350000  1.0
  H  H225  1  0.61390000  0.90580000  0.61120000  1.0
  H  H226  1  0.63450000  0.91230000  0.57400000  1.0
  H  H227  1  0.65050000  0.87900000  0.59450000  1.0
  H  H228  1  0.47860000  0.81700000  0.51990000  1.0
  H  H229  1  0.51240000  0.83780000  0.49420000  1.0
  H  H230  1  0.46650000  0.85590000  0.51110000  1.0
  H  H231  1  0.68450000  0.81740000  0.68500000  1.0
  H  H232  1  0.70100000  0.79890000  0.71920000  1.0
  H  H233  1  0.66880000  0.83270000  0.72090000  1.0
  H  H234  1  0.52990000  0.71370000  0.73630000  1.0
  H  H235  1  0.58140000  0.69550000  0.74080000  1.0
  H  H236  1  0.55420000  0.69410000  0.70510000  1.0
  H  H237  1  0.75250000  0.69960000  0.73000000  1.0
  H  H238  1  0.72200000  0.72360000  0.70510000  1.0
  H  H239  1  0.69940000  0.68840000  0.71790000  1.0
  H  H240  1  0.59090000  0.78290000  0.79480000  1.0
  H  H241  1  0.63710000  0.80680000  0.80100000  1.0
  H  H242  1  0.62170000  0.77930000  0.82900000  1.0
  H  H243  1  0.62960000  0.67650000  0.82290000  1.0
  H  H244  1  0.63660000  0.63600000  0.82270000  1.0
  H  H245  1  0.67280000  0.65980000  0.80160000  1.0
  H  H246  1  0.76430000  0.65020000  0.94640000  1.0
  H  H247  1  0.70830000  0.64230000  0.95360000  1.0
  H  H248  1  0.72790000  0.68070000  0.95540000  1.0
  H  H249  1  0.58180000  0.69990000  0.93230000  1.0
  H  H250  1  0.63120000  0.69270000  0.95230000  1.0
  H  H251  1  0.58050000  0.68030000  0.96770000  1.0
  H  H252  1  0.55000000  0.62160000  0.95310000  1.0
  H  H253  1  0.64520000  0.55230000  0.88250000  1.0
  H  H254  1  0.68100000  0.58090000  0.86800000  1.0
  H  H255  1  0.62900000  0.57510000  0.85090000  1.0
  H  H256  1  0.64290000  0.55050000  0.11270000  1.0
  H  H257  1  0.66950000  0.72180000  0.03850000  1.0
  H  H258  1  0.50150000  0.80840000  0.05440000  1.0
  H  H259  1  0.29300000  0.72970000  0.22100000  1.0
  H  H260  1  0.13080000  0.56270000  0.54140000  1.0
  H  H261  1  0.00900000  0.68030000  0.42080000  1.0
  H  H262  1  0.03760000  0.74160000  0.31750000  1.0
  H  H263  1  0.19460000  0.75580000  0.17030000  1.0
  H  H264  1  0.27910000  0.81410000  0.11430000  1.0
  H  H265  1  0.58700000  0.56280000  0.06610000  1.0
  H  H266  1  0.60110000  0.59610000  0.04490000  1.0
  H  H267  1  0.56460000  0.59900000  0.07630000  1.0
  H  H268  1  0.75900000  0.64480000  0.11950000  1.0
  H  H269  1  0.74460000  0.63400000  0.15720000  1.0
  H  H270  1  0.71510000  0.66350000  0.13830000  1.0
  H  H271  1  0.74230000  0.68790000  0.02870000  1.0
  H  H272  1  0.71610000  0.65360000  0.01650000  1.0
  H  H273  1  0.74680000  0.65390000  0.05090000  1.0
  H  H274  1  0.56360000  0.69350000  0.12820000  1.0
  H  H275  1  0.58180000  0.65480000  0.13010000  1.0
  H  H276  1  0.54230000  0.66570000  0.10250000  1.0
  H  H277  1  0.45170000  0.87970000  0.05610000  1.0
  H  H278  1  0.42270000  0.87120000  0.09020000  1.0
  H  H279  1  0.42670000  0.84320000  0.06090000  1.0
  H  H280  1  0.59300000  0.83150000  0.16340000  1.0
  H  H281  1  0.60880000  0.86480000  0.14280000  1.0
  H  H282  1  0.62900000  0.82820000  0.13190000  1.0
  H  H283  1  0.55870000  0.92890000  0.08400000  1.0
  H  H284  1  0.52900000  0.96320000  0.09150000  1.0
  H  H285  1  0.50240000  0.93130000  0.07440000  1.0
  H  H286  1  0.48310000  0.92700000  0.20300000  1.0
  H  H287  1  0.46600000  0.83930000  0.18850000  1.0
  H  H288  1  0.47810000  0.86500000  0.21870000  1.0
  H  H289  1  0.52080000  0.84390000  0.20100000  1.0
  H  H290  1  0.48180000  0.73790000  0.27800000  1.0
  H  H291  1  0.50780000  0.76750000  0.29920000  1.0
  H  H292  1  0.46940000  0.77700000  0.27040000  1.0
  H  H293  1  0.47970000  0.76260000  0.35730000  1.0
  H  H294  1  0.30250000  0.76940000  0.33960000  1.0
  H  H295  1  0.31240000  0.74800000  0.37330000  1.0
  H  H296  1  0.30610000  0.72880000  0.33790000  1.0
  H  H297  1  0.29260000  0.68830000  0.27580000  1.0
  H  H298  1  0.34570000  0.68600000  0.29190000  1.0
  H  H299  1  0.33710000  0.67540000  0.25320000  1.0
  H  H300  1  0.35480000  0.83700000  0.24560000  1.0
  H  H301  1  0.40690000  0.82250000  0.25610000  1.0
  H  H302  1  0.36700000  0.83010000  0.28450000  1.0
  H  H303  1  0.98080000  0.54150000  0.49670000  1.0
  H  H304  1  0.98570000  0.56400000  0.46310000  1.0
  H  H305  1  0.96870000  0.58140000  0.49770000  1.0
  H  H306  1  0.15680000  0.64030000  0.51570000  1.0
  H  H307  1  0.17110000  0.62170000  0.48110000  1.0
  H  H308  1  0.18840000  0.60610000  0.51650000  1.0
  H  H309  1  0.11390000  0.59420000  0.38880000  1.0
  H  H310  1  0.13450000  0.58770000  0.42600000  1.0
  H  H311  1  0.15050000  0.62100000  0.40550000  1.0
  H  H312  1  0.97860000  0.68300000  0.48010000  1.0
  H  H313  1  0.01240000  0.66220000  0.50580000  1.0
  H  H314  1  0.96650000  0.64410000  0.48890000  1.0
  H  H315  1  0.18450000  0.68260000  0.31500000  1.0
  H  H316  1  0.20100000  0.70110000  0.28080000  1.0
  H  H317  1  0.16880000  0.66730000  0.27910000  1.0
  H  H318  1  0.02990000  0.78630000  0.26370000  1.0
  H  H319  1  0.08140000  0.80450000  0.25920000  1.0
  H  H320  1  0.05420000  0.80590000  0.29490000  1.0
  H  H321  1  0.25250000  0.80040000  0.27000000  1.0
  H  H322  1  0.22200000  0.77640000  0.29490000  1.0
  H  H323  1  0.19940000  0.81160000  0.28210000  1.0
  H  H324  1  0.09090000  0.71710000  0.20520000  1.0
  H  H325  1  0.13710000  0.69320000  0.19900000  1.0
  H  H326  1  0.12170000  0.72070000  0.17100000  1.0
  H  H327  1  0.12960000  0.82350000  0.17710000  1.0
  H  H328  1  0.13660000  0.86400000  0.17730000  1.0
  H  H329  1  0.17280000  0.84020000  0.19840000  1.0
  H  H330  1  0.26430000  0.84980000  0.05360000  1.0
  H  H331  1  0.20830000  0.85770000  0.04640000  1.0
  H  H332  1  0.22790000  0.81930000  0.04460000  1.0
  H  H333  1  0.08180000  0.80010000  0.06770000  1.0
  H  H334  1  0.13120000  0.80730000  0.04770000  1.0
  H  H335  1  0.08050000  0.81970000  0.03230000  1.0
  H  H336  1  0.05000000  0.87840000  0.04690000  1.0
  H  H337  1  0.14520000  0.94770000  0.11750000  1.0
  H  H338  1  0.18100000  0.91910000  0.13200000  1.0
  H  H339  1  0.12900000  0.92490000  0.14910000  1.0
  H  H340  1  0.85710000  0.94950000  0.61270000  1.0
  H  H341  1  0.83050000  0.77820000  0.53850000  1.0
  H  H342  1  0.99850000  0.69160000  0.55440000  1.0
  H  H343  1  0.20700000  0.77030000  0.72100000  1.0
  H  H344  1  0.36920000  0.93730000  0.04140000  1.0
  H  H345  1  0.49100000  0.81970000  0.92080000  1.0
  H  H346  1  0.46240000  0.75840000  0.81750000  1.0
  H  H347  1  0.30540000  0.74420000  0.67030000  1.0
  H  H348  1  0.22090000  0.68590000  0.61430000  1.0
  H  H349  1  0.91300000  0.93720000  0.56610000  1.0
  H  H350  1  0.89890000  0.90390000  0.54490000  1.0
  H  H351  1  0.93540000  0.90100000  0.57630000  1.0
  H  H352  1  0.74100000  0.85520000  0.61950000  1.0
  H  H353  1  0.75540000  0.86600000  0.65720000  1.0
  H  H354  1  0.78490000  0.83650000  0.63830000  1.0
  H  H355  1  0.75770000  0.81210000  0.52870000  1.0
  H  H356  1  0.78390000  0.84640000  0.51650000  1.0
  H  H357  1  0.75320000  0.84610000  0.55090000  1.0
  H  H358  1  0.93640000  0.80650000  0.62820000  1.0
  H  H359  1  0.91820000  0.84520000  0.63010000  1.0
  H  H360  1  0.95770000  0.83430000  0.60250000  1.0
  H  H361  1  0.04830000  0.62030000  0.55610000  1.0
  H  H362  1  0.07730000  0.62880000  0.59020000  1.0
  H  H363  1  0.07330000  0.65680000  0.56090000  1.0
  H  H364  1  0.90700000  0.66850000  0.66340000  1.0
  H  H365  1  0.89120000  0.63520000  0.64280000  1.0
  H  H366  1  0.87100000  0.67180000  0.63190000  1.0
  H  H367  1  0.94130000  0.57110000  0.58400000  1.0
  H  H368  1  0.97100000  0.53680000  0.59150000  1.0
  H  H369  1  0.99760000  0.56870000  0.57440000  1.0
  H  H370  1  0.01690000  0.57300000  0.70300000  1.0
  H  H371  1  0.03400000  0.66070000  0.68850000  1.0
  H  H372  1  0.02190000  0.63500000  0.71870000  1.0
  H  H373  1  0.97920000  0.65610000  0.70100000  1.0
  H  H374  1  0.01820000  0.76210000  0.77800000  1.0
  H  H375  1  0.99220000  0.73250000  0.79920000  1.0
  H  H376  1  0.03060000  0.72300000  0.77040000  1.0
  H  H377  1  0.02030000  0.73740000  0.85730000  1.0
  H  H378  1  0.19750000  0.73060000  0.83960000  1.0
  H  H379  1  0.18760000  0.75200000  0.87330000  1.0
  H  H380  1  0.19390000  0.77120000  0.83790000  1.0
  H  H381  1  0.20740000  0.81170000  0.77580000  1.0
  H  H382  1  0.15430000  0.81400000  0.79190000  1.0
  H  H383  1  0.16290000  0.82460000  0.75320000  1.0
  H  H384  1  0.14520000  0.66300000  0.74560000  1.0
  H  H385  1  0.09310000  0.67750000  0.75610000  1.0
  H  H386  1  0.13300000  0.66990000  0.78450000  1.0
  H  H387  1  0.51920000  0.95850000  0.99670000  1.0
  H  H388  1  0.51430000  0.93600000  0.96310000  1.0
  H  H389  1  0.53130000  0.91860000  0.99770000  1.0
  H  H390  1  0.34320000  0.85970000  0.01570000  1.0
  H  H391  1  0.32890000  0.87830000  0.98110000  1.0
  H  H392  1  0.31160000  0.89390000  0.01650000  1.0
  H  H393  1  0.38610000  0.90580000  0.88880000  1.0
  H  H394  1  0.36550000  0.91230000  0.92600000  1.0
  H  H395  1  0.34950000  0.87900000  0.90550000  1.0
  H  H396  1  0.52140000  0.81700000  0.98010000  1.0
  H  H397  1  0.48760000  0.83780000  0.00580000  1.0
  H  H398  1  0.53350000  0.85590000  0.98890000  1.0
  H  H399  1  0.31550000  0.81740000  0.81500000  1.0
  H  H400  1  0.29900000  0.79890000  0.78080000  1.0
  H  H401  1  0.33120000  0.83270000  0.77910000  1.0
  H  H402  1  0.47010000  0.71370000  0.76370000  1.0
  H  H403  1  0.41860000  0.69550000  0.75920000  1.0
  H  H404  1  0.44580000  0.69410000  0.79490000  1.0
  H  H405  1  0.24750000  0.69960000  0.77000000  1.0
  H  H406  1  0.27800000  0.72360000  0.79490000  1.0
  H  H407  1  0.30060000  0.68840000  0.78210000  1.0
  H  H408  1  0.40910000  0.78290000  0.70520000  1.0
  H  H409  1  0.36290000  0.80680000  0.69900000  1.0
  H  H410  1  0.37830000  0.77930000  0.67100000  1.0
  H  H411  1  0.37040000  0.67650000  0.67710000  1.0
  H  H412  1  0.36340000  0.63600000  0.67730000  1.0
  H  H413  1  0.32720000  0.65980000  0.69840000  1.0
  H  H414  1  0.23570000  0.65020000  0.55360000  1.0
  H  H415  1  0.29170000  0.64230000  0.54640000  1.0
  H  H416  1  0.27210000  0.68070000  0.54460000  1.0
  H  H417  1  0.41820000  0.69990000  0.56770000  1.0
  H  H418  1  0.36880000  0.69270000  0.54770000  1.0
  H  H419  1  0.41950000  0.68030000  0.53230000  1.0
  H  H420  1  0.45000000  0.62160000  0.54690000  1.0
  H  H421  1  0.35480000  0.55230000  0.61750000  1.0
  H  H422  1  0.31900000  0.58090000  0.63200000  1.0
  H  H423  1  0.37100000  0.57510000  0.64910000  1.0
  H  H424  1  0.64290000  0.44950000  0.61270000  1.0
  H  H425  1  0.66950000  0.27820000  0.53850000  1.0
  H  H426  1  0.50150000  0.19160000  0.55440000  1.0
  H  H427  1  0.29300000  0.27030000  0.72100000  1.0
  H  H428  1  0.13080000  0.43730000  0.04140000  1.0
  H  H429  1  0.00900000  0.31970000  0.92080000  1.0
  H  H430  1  0.03760000  0.25840000  0.81750000  1.0
  H  H431  1  0.19460000  0.24420000  0.67030000  1.0
  H  H432  1  0.27910000  0.18590000  0.61430000  1.0
  H  H433  1  0.58700000  0.43720000  0.56610000  1.0
  H  H434  1  0.60110000  0.40390000  0.54490000  1.0
  H  H435  1  0.56460000  0.40100000  0.57630000  1.0
  H  H436  1  0.75900000  0.35520000  0.61950000  1.0
  H  H437  1  0.74460000  0.36600000  0.65720000  1.0
  H  H438  1  0.71510000  0.33650000  0.63830000  1.0
  H  H439  1  0.74230000  0.31210000  0.52870000  1.0
  H  H440  1  0.71610000  0.34640000  0.51650000  1.0
  H  H441  1  0.74680000  0.34610000  0.55090000  1.0
  H  H442  1  0.56360000  0.30650000  0.62820000  1.0
  H  H443  1  0.58180000  0.34520000  0.63010000  1.0
  H  H444  1  0.54230000  0.33430000  0.60250000  1.0
  H  H445  1  0.45170000  0.12030000  0.55610000  1.0
  H  H446  1  0.42270000  0.12880000  0.59020000  1.0
  H  H447  1  0.42670000  0.15680000  0.56090000  1.0
  H  H448  1  0.59300000  0.16850000  0.66340000  1.0
  H  H449  1  0.60880000  0.13520000  0.64280000  1.0
  H  H450  1  0.62900000  0.17180000  0.63190000  1.0
  H  H451  1  0.55870000  0.07110000  0.58400000  1.0
  H  H452  1  0.52900000  0.03680000  0.59150000  1.0
  H  H453  1  0.50240000  0.06870000  0.57440000  1.0
  H  H454  1  0.48310000  0.07300000  0.70300000  1.0
  H  H455  1  0.46600000  0.16070000  0.68850000  1.0
  H  H456  1  0.47810000  0.13500000  0.71870000  1.0
  H  H457  1  0.52080000  0.15610000  0.70100000  1.0
  H  H458  1  0.48180000  0.26210000  0.77800000  1.0
  H  H459  1  0.50780000  0.23250000  0.79920000  1.0
  H  H460  1  0.46940000  0.22300000  0.77040000  1.0
  H  H461  1  0.47970000  0.23740000  0.85730000  1.0
  H  H462  1  0.30250000  0.23060000  0.83960000  1.0
  H  H463  1  0.31240000  0.25200000  0.87330000  1.0
  H  H464  1  0.30610000  0.27120000  0.83790000  1.0
  H  H465  1  0.29260000  0.31170000  0.77580000  1.0
  H  H466  1  0.34570000  0.31400000  0.79190000  1.0
  H  H467  1  0.33710000  0.32460000  0.75320000  1.0
  H  H468  1  0.35480000  0.16300000  0.74560000  1.0
  H  H469  1  0.40690000  0.17750000  0.75610000  1.0
  H  H470  1  0.36700000  0.16990000  0.78450000  1.0
  H  H471  1  0.98080000  0.45850000  0.99670000  1.0
  H  H472  1  0.98570000  0.43600000  0.96310000  1.0
  H  H473  1  0.96870000  0.41860000  0.99770000  1.0
  H  H474  1  0.15680000  0.35970000  0.01570000  1.0
  H  H475  1  0.17110000  0.37830000  0.98110000  1.0
  H  H476  1  0.18840000  0.39390000  0.01650000  1.0
  H  H477  1  0.11390000  0.40580000  0.88880000  1.0
  H  H478  1  0.13450000  0.41230000  0.92600000  1.0
  H  H479  1  0.15050000  0.37900000  0.90550000  1.0
  H  H480  1  0.97860000  0.31700000  0.98010000  1.0
  H  H481  1  0.01240000  0.33780000  0.00580000  1.0
  H  H482  1  0.96650000  0.35590000  0.98890000  1.0
  H  H483  1  0.18450000  0.31740000  0.81500000  1.0
  H  H484  1  0.20100000  0.29890000  0.78080000  1.0
  H  H485  1  0.16880000  0.33270000  0.77910000  1.0
  H  H486  1  0.02990000  0.21370000  0.76370000  1.0
  H  H487  1  0.08140000  0.19550000  0.75920000  1.0
  H  H488  1  0.05420000  0.19410000  0.79490000  1.0
  H  H489  1  0.25250000  0.19960000  0.77000000  1.0
  H  H490  1  0.22200000  0.22360000  0.79490000  1.0
  H  H491  1  0.19940000  0.18840000  0.78210000  1.0
  H  H492  1  0.09090000  0.28290000  0.70520000  1.0
  H  H493  1  0.13710000  0.30680000  0.69900000  1.0
  H  H494  1  0.12170000  0.27930000  0.67100000  1.0
  H  H495  1  0.12960000  0.17650000  0.67710000  1.0
  H  H496  1  0.13660000  0.13600000  0.67730000  1.0
  H  H497  1  0.17280000  0.15980000  0.69840000  1.0
  H  H498  1  0.26430000  0.15020000  0.55360000  1.0
  H  H499  1  0.20830000  0.14230000  0.54640000  1.0
  H  H500  1  0.22790000  0.18070000  0.54460000  1.0
  H  H501  1  0.08180000  0.19990000  0.56770000  1.0
  H  H502  1  0.13120000  0.19270000  0.54770000  1.0
  H  H503  1  0.08050000  0.18030000  0.53230000  1.0
  H  H504  1  0.05000000  0.12160000  0.54690000  1.0
  H  H505  1  0.14520000  0.05230000  0.61750000  1.0
  H  H506  1  0.18100000  0.08090000  0.63200000  1.0
  H  H507  1  0.12900000  0.07510000  0.64910000  1.0
  H  H508  1  0.85710000  0.05050000  0.11270000  1.0
  H  H509  1  0.83050000  0.22180000  0.03850000  1.0
  H  H510  1  0.99850000  0.30840000  0.05440000  1.0
  H  H511  1  0.20700000  0.22970000  0.22100000  1.0
  H  H512  1  0.36920000  0.06270000  0.54140000  1.0
  H  H513  1  0.49100000  0.18030000  0.42080000  1.0
  H  H514  1  0.46240000  0.24160000  0.31750000  1.0
  H  H515  1  0.30540000  0.25580000  0.17030000  1.0
  H  H516  1  0.22090000  0.31410000  0.11430000  1.0
  H  H517  1  0.91300000  0.06280000  0.06610000  1.0
  H  H518  1  0.89890000  0.09610000  0.04490000  1.0
  H  H519  1  0.93540000  0.09900000  0.07630000  1.0
  H  H520  1  0.74100000  0.14480000  0.11950000  1.0
  H  H521  1  0.75540000  0.13400000  0.15720000  1.0
  H  H522  1  0.78490000  0.16350000  0.13830000  1.0
  H  H523  1  0.75770000  0.18790000  0.02870000  1.0
  H  H524  1  0.78390000  0.15360000  0.01650000  1.0
  H  H525  1  0.75320000  0.15390000  0.05090000  1.0
  H  H526  1  0.93640000  0.19350000  0.12820000  1.0
  H  H527  1  0.91820000  0.15480000  0.13010000  1.0
  H  H528  1  0.95770000  0.16570000  0.10250000  1.0
  H  H529  1  0.04830000  0.37970000  0.05610000  1.0
  H  H530  1  0.07730000  0.37120000  0.09020000  1.0
  H  H531  1  0.07330000  0.34320000  0.06090000  1.0
  H  H532  1  0.90700000  0.33150000  0.16340000  1.0
  H  H533  1  0.89120000  0.36480000  0.14280000  1.0
  H  H534  1  0.87100000  0.32820000  0.13190000  1.0
  H  H535  1  0.94130000  0.42890000  0.08400000  1.0
  H  H536  1  0.97100000  0.46320000  0.09150000  1.0
  H  H537  1  0.99760000  0.43130000  0.07440000  1.0
  H  H538  1  0.01690000  0.42700000  0.20300000  1.0
  H  H539  1  0.03400000  0.33930000  0.18850000  1.0
  H  H540  1  0.02190000  0.36500000  0.21870000  1.0
  H  H541  1  0.97920000  0.34390000  0.20100000  1.0
  H  H542  1  0.01820000  0.23790000  0.27800000  1.0
  H  H543  1  0.99220000  0.26750000  0.29920000  1.0
  H  H544  1  0.03060000  0.27700000  0.27040000  1.0
  H  H545  1  0.02030000  0.26260000  0.35730000  1.0
  H  H546  1  0.19750000  0.26940000  0.33960000  1.0
  H  H547  1  0.18760000  0.24800000  0.37330000  1.0
  H  H548  1  0.19390000  0.22880000  0.33790000  1.0
  H  H549  1  0.20740000  0.18830000  0.27580000  1.0
  H  H550  1  0.15430000  0.18600000  0.29190000  1.0
  H  H551  1  0.16290000  0.17540000  0.25320000  1.0
  H  H552  1  0.14520000  0.33700000  0.24560000  1.0
  H  H553  1  0.09310000  0.32250000  0.25610000  1.0
  H  H554  1  0.13300000  0.33010000  0.28450000  1.0
  H  H555  1  0.51920000  0.04150000  0.49670000  1.0
  H  H556  1  0.51430000  0.06400000  0.46310000  1.0
  H  H557  1  0.53130000  0.08140000  0.49770000  1.0
  H  H558  1  0.34320000  0.14030000  0.51570000  1.0
  H  H559  1  0.32890000  0.12170000  0.48110000  1.0
  H  H560  1  0.31160000  0.10610000  0.51650000  1.0
  H  H561  1  0.38610000  0.09420000  0.38880000  1.0
  H  H562  1  0.36550000  0.08770000  0.42600000  1.0
  H  H563  1  0.34950000  0.12100000  0.40550000  1.0
  H  H564  1  0.52140000  0.18300000  0.48010000  1.0
  H  H565  1  0.48760000  0.16220000  0.50580000  1.0
  H  H566  1  0.53350000  0.14410000  0.48890000  1.0
  H  H567  1  0.31550000  0.18260000  0.31500000  1.0
  H  H568  1  0.29900000  0.20110000  0.28080000  1.0
  H  H569  1  0.33120000  0.16730000  0.27910000  1.0
  H  H570  1  0.47010000  0.28630000  0.26370000  1.0
  H  H571  1  0.41860000  0.30450000  0.25920000  1.0
  H  H572  1  0.44580000  0.30590000  0.29490000  1.0
  H  H573  1  0.24750000  0.30040000  0.27000000  1.0
  H  H574  1  0.27800000  0.27640000  0.29490000  1.0
  H  H575  1  0.30060000  0.31160000  0.28210000  1.0
  H  H576  1  0.40910000  0.21710000  0.20520000  1.0
  H  H577  1  0.36290000  0.19320000  0.19900000  1.0
  H  H578  1  0.37830000  0.22070000  0.17100000  1.0
  H  H579  1  0.37040000  0.32350000  0.17710000  1.0
  H  H580  1  0.36340000  0.36400000  0.17730000  1.0
  H  H581  1  0.32720000  0.34020000  0.19840000  1.0
  H  H582  1  0.23570000  0.34980000  0.05360000  1.0
  H  H583  1  0.29170000  0.35770000  0.04640000  1.0
  H  H584  1  0.27210000  0.31930000  0.04460000  1.0
  H  H585  1  0.41820000  0.30010000  0.06770000  1.0
  H  H586  1  0.36880000  0.30730000  0.04770000  1.0
  H  H587  1  0.41950000  0.31970000  0.03230000  1.0
  H  H588  1  0.45000000  0.37840000  0.04690000  1.0
  H  H589  1  0.35480000  0.44770000  0.11750000  1.0
  H  H590  1  0.31900000  0.41910000  0.13200000  1.0
  H  H591  1  0.37100000  0.42490000  0.14910000  1.0
  H  H592  1  0.35710000  0.44950000  0.88730000  1.0
  H  H593  1  0.33050000  0.27820000  0.96150000  1.0
  H  H594  1  0.49850000  0.19160000  0.94560000  1.0
  H  H595  1  0.70700000  0.27030000  0.77900000  1.0
  H  H596  1  0.86920000  0.43730000  0.45860000  1.0
  H  H597  1  0.99100000  0.31970000  0.57920000  1.0
  H  H598  1  0.96240000  0.25840000  0.68250000  1.0
  H  H599  1  0.80540000  0.24420000  0.82970000  1.0
  H  H600  1  0.72090000  0.18590000  0.88570000  1.0
  H  H601  1  0.41300000  0.43720000  0.93390000  1.0
  H  H602  1  0.39890000  0.40390000  0.95510000  1.0
  H  H603  1  0.43540000  0.40100000  0.92370000  1.0
  H  H604  1  0.24100000  0.35520000  0.88050000  1.0
  H  H605  1  0.25540000  0.36600000  0.84280000  1.0
  H  H606  1  0.28490000  0.33650000  0.86170000  1.0
  H  H607  1  0.25770000  0.31210000  0.97130000  1.0
  H  H608  1  0.28390000  0.34640000  0.98350000  1.0
  H  H609  1  0.25320000  0.34610000  0.94910000  1.0
  H  H610  1  0.43640000  0.30650000  0.87180000  1.0
  H  H611  1  0.41820000  0.34520000  0.86990000  1.0
  H  H612  1  0.45770000  0.33430000  0.89750000  1.0
  H  H613  1  0.54830000  0.12030000  0.94390000  1.0
  H  H614  1  0.57730000  0.12880000  0.90980000  1.0
  H  H615  1  0.57330000  0.15680000  0.93910000  1.0
  H  H616  1  0.40700000  0.16850000  0.83660000  1.0
  H  H617  1  0.39120000  0.13520000  0.85720000  1.0
  H  H618  1  0.37100000  0.17180000  0.86810000  1.0
  H  H619  1  0.44130000  0.07110000  0.91600000  1.0
  H  H620  1  0.47100000  0.03680000  0.90850000  1.0
  H  H621  1  0.49760000  0.06870000  0.92560000  1.0
  H  H622  1  0.51690000  0.07300000  0.79700000  1.0
  H  H623  1  0.53400000  0.16070000  0.81150000  1.0
  H  H624  1  0.52190000  0.13500000  0.78130000  1.0
  H  H625  1  0.47920000  0.15610000  0.79900000  1.0
  H  H626  1  0.51820000  0.26210000  0.72200000  1.0
  H  H627  1  0.49220000  0.23250000  0.70080000  1.0
  H  H628  1  0.53060000  0.22300000  0.72960000  1.0
  H  H629  1  0.52030000  0.23740000  0.64270000  1.0
  H  H630  1  0.69750000  0.23060000  0.66040000  1.0
  H  H631  1  0.68760000  0.25200000  0.62670000  1.0
  H  H632  1  0.69390000  0.27120000  0.66210000  1.0
  H  H633  1  0.70740000  0.31170000  0.72420000  1.0
  H  H634  1  0.65430000  0.31400000  0.70810000  1.0
  H  H635  1  0.66290000  0.32460000  0.74680000  1.0
  H  H636  1  0.64520000  0.16300000  0.75440000  1.0
  H  H637  1  0.59310000  0.17750000  0.74390000  1.0
  H  H638  1  0.63300000  0.16990000  0.71550000  1.0
  H  H639  1  0.01920000  0.45850000  0.50330000  1.0
  H  H640  1  0.01430000  0.43600000  0.53690000  1.0
  H  H641  1  0.03130000  0.41860000  0.50230000  1.0
  H  H642  1  0.84320000  0.35970000  0.48430000  1.0
  H  H643  1  0.82890000  0.37830000  0.51890000  1.0
  H  H644  1  0.81160000  0.39390000  0.48350000  1.0
  H  H645  1  0.88610000  0.40580000  0.61120000  1.0
  H  H646  1  0.86550000  0.41230000  0.57400000  1.0
  H  H647  1  0.84950000  0.37900000  0.59450000  1.0
  H  H648  1  0.02140000  0.31700000  0.51990000  1.0
  H  H649  1  0.98760000  0.33780000  0.49420000  1.0
  H  H650  1  0.03350000  0.35590000  0.51110000  1.0
  H  H651  1  0.81550000  0.31740000  0.68500000  1.0
  H  H652  1  0.79900000  0.29890000  0.71920000  1.0
  H  H653  1  0.83120000  0.33270000  0.72090000  1.0
  H  H654  1  0.97010000  0.21370000  0.73630000  1.0
  H  H655  1  0.91860000  0.19550000  0.74080000  1.0
  H  H656  1  0.94580000  0.19410000  0.70510000  1.0
  H  H657  1  0.74750000  0.19960000  0.73000000  1.0
  H  H658  1  0.77800000  0.22360000  0.70510000  1.0
  H  H659  1  0.80060000  0.18840000  0.71790000  1.0
  H  H660  1  0.90910000  0.28290000  0.79480000  1.0
  H  H661  1  0.86290000  0.30680000  0.80100000  1.0
  H  H662  1  0.87830000  0.27930000  0.82900000  1.0
  H  H663  1  0.87040000  0.17650000  0.82290000  1.0
  H  H664  1  0.86340000  0.13600000  0.82270000  1.0
  H  H665  1  0.82720000  0.15980000  0.80160000  1.0
  H  H666  1  0.73570000  0.15020000  0.94640000  1.0
  H  H667  1  0.79170000  0.14230000  0.95360000  1.0
  H  H668  1  0.77210000  0.18070000  0.95540000  1.0
  H  H669  1  0.91820000  0.19990000  0.93230000  1.0
  H  H670  1  0.86880000  0.19270000  0.95230000  1.0
  H  H671  1  0.91950000  0.18030000  0.96770000  1.0
  H  H672  1  0.95000000  0.12160000  0.95310000  1.0
  H  H673  1  0.85480000  0.05230000  0.88250000  1.0
  H  H674  1  0.81900000  0.08090000  0.86800000  1.0
  H  H675  1  0.87100000  0.07510000  0.85090000  1.0
  H  H676  1  0.14290000  0.05050000  0.38730000  1.0
  H  H677  1  0.16950000  0.22180000  0.46150000  1.0
  H  H678  1  0.00150000  0.30840000  0.44560000  1.0
  H  H679  1  0.79300000  0.22970000  0.27900000  1.0
  H  H680  1  0.63080000  0.06270000  0.95860000  1.0
  H  H681  1  0.50900000  0.18030000  0.07920000  1.0
  H  H682  1  0.53760000  0.24160000  0.18250000  1.0
  H  H683  1  0.69460000  0.25580000  0.32970000  1.0
  H  H684  1  0.77910000  0.31410000  0.38570000  1.0
  H  H685  1  0.08700000  0.06280000  0.43390000  1.0
  H  H686  1  0.10110000  0.09610000  0.45510000  1.0
  H  H687  1  0.06460000  0.09900000  0.42370000  1.0
  H  H688  1  0.25900000  0.14480000  0.38050000  1.0
  H  H689  1  0.24460000  0.13400000  0.34280000  1.0
  H  H690  1  0.21510000  0.16350000  0.36170000  1.0
  H  H691  1  0.24230000  0.18790000  0.47130000  1.0
  H  H692  1  0.21610000  0.15360000  0.48350000  1.0
  H  H693  1  0.24680000  0.15390000  0.44910000  1.0
  H  H694  1  0.06360000  0.19350000  0.37180000  1.0
  H  H695  1  0.08180000  0.15480000  0.36990000  1.0
  H  H696  1  0.04230000  0.16570000  0.39750000  1.0
  H  H697  1  0.95170000  0.37970000  0.44390000  1.0
  H  H698  1  0.92270000  0.37120000  0.40980000  1.0
  H  H699  1  0.92670000  0.34320000  0.43910000  1.0
  H  H700  1  0.09300000  0.33150000  0.33660000  1.0
  H  H701  1  0.10880000  0.36480000  0.35720000  1.0
  H  H702  1  0.12900000  0.32820000  0.36810000  1.0
  H  H703  1  0.05870000  0.42890000  0.41600000  1.0
  H  H704  1  0.02900000  0.46320000  0.40850000  1.0
  H  H705  1  0.00240000  0.43130000  0.42560000  1.0
  H  H706  1  0.98310000  0.42700000  0.29700000  1.0
  H  H707  1  0.96600000  0.33930000  0.31150000  1.0
  H  H708  1  0.97810000  0.36500000  0.28130000  1.0
  H  H709  1  0.02080000  0.34390000  0.29900000  1.0
  H  H710  1  0.98180000  0.23790000  0.22200000  1.0
  H  H711  1  0.00780000  0.26750000  0.20080000  1.0
  H  H712  1  0.96940000  0.27700000  0.22960000  1.0
  H  H713  1  0.97970000  0.26260000  0.14270000  1.0
  H  H714  1  0.80250000  0.26940000  0.16040000  1.0
  H  H715  1  0.81240000  0.24800000  0.12670000  1.0
  H  H716  1  0.80610000  0.22880000  0.16210000  1.0
  H  H717  1  0.79260000  0.18830000  0.22420000  1.0
  H  H718  1  0.84570000  0.18600000  0.20810000  1.0
  H  H719  1  0.83710000  0.17540000  0.24680000  1.0
  H  H720  1  0.85480000  0.33700000  0.25440000  1.0
  H  H721  1  0.90690000  0.32250000  0.24390000  1.0
  H  H722  1  0.86700000  0.33010000  0.21550000  1.0
  H  H723  1  0.48080000  0.04150000  0.00330000  1.0
  H  H724  1  0.48570000  0.06400000  0.03690000  1.0
  H  H725  1  0.46870000  0.08140000  0.00230000  1.0
  H  H726  1  0.65680000  0.14030000  0.98430000  1.0
  H  H727  1  0.67110000  0.12170000  0.01890000  1.0
  H  H728  1  0.68840000  0.10610000  0.98350000  1.0
  H  H729  1  0.61390000  0.09420000  0.11120000  1.0
  H  H730  1  0.63450000  0.08770000  0.07400000  1.0
  H  H731  1  0.65050000  0.12100000  0.09450000  1.0
  H  H732  1  0.47860000  0.18300000  0.01990000  1.0
  H  H733  1  0.51240000  0.16220000  0.99420000  1.0
  H  H734  1  0.46650000  0.14410000  0.01110000  1.0
  H  H735  1  0.68450000  0.18260000  0.18500000  1.0
  H  H736  1  0.70100000  0.20110000  0.21920000  1.0
  H  H737  1  0.66880000  0.16730000  0.22090000  1.0
  H  H738  1  0.52990000  0.28630000  0.23630000  1.0
  H  H739  1  0.58140000  0.30450000  0.24080000  1.0
  H  H740  1  0.55420000  0.30590000  0.20510000  1.0
  H  H741  1  0.75250000  0.30040000  0.23000000  1.0
  H  H742  1  0.72200000  0.27640000  0.20510000  1.0
  H  H743  1  0.69940000  0.31160000  0.21790000  1.0
  H  H744  1  0.59090000  0.21710000  0.29480000  1.0
  H  H745  1  0.63710000  0.19320000  0.30100000  1.0
  H  H746  1  0.62170000  0.22070000  0.32900000  1.0
  H  H747  1  0.62960000  0.32350000  0.32290000  1.0
  H  H748  1  0.63660000  0.36400000  0.32270000  1.0
  H  H749  1  0.67280000  0.34020000  0.30160000  1.0
  H  H750  1  0.76430000  0.34980000  0.44640000  1.0
  H  H751  1  0.70830000  0.35770000  0.45360000  1.0
  H  H752  1  0.72790000  0.31930000  0.45540000  1.0
  H  H753  1  0.58180000  0.30010000  0.43230000  1.0
  H  H754  1  0.63120000  0.30730000  0.45230000  1.0
  H  H755  1  0.58050000  0.31970000  0.46770000  1.0
  H  H756  1  0.55000000  0.37840000  0.45310000  1.0
  H  H757  1  0.64520000  0.44770000  0.38250000  1.0
  H  H758  1  0.68100000  0.41910000  0.36800000  1.0
  H  H759  1  0.62900000  0.42490000  0.35090000  1.0
  W  W760  1  0.82488000  0.56810000  0.35524000  1.0
  W  W761  1  0.72723000  0.51528000  0.35717000  1.0
  W  W762  1  0.65749000  0.59545000  0.32578000  1.0
  W  W763  1  0.75496000  0.64861000  0.32468000  1.0
  W  W764  1  0.68785000  0.72590000  0.36110000  1.0
  W  W765  1  0.58793000  0.67689000  0.35011000  1.0
  W  W766  1  0.57684000  0.59941000  0.40347000  1.0
  W  W767  1  0.79523000  0.68733000  0.40600000  1.0
  W  W768  1  0.86219000  0.60894000  0.43827000  1.0
  W  W769  1  0.64578000  0.51982000  0.43208000  1.0
  W  W770  1  0.76216000  0.46883000  0.43916000  1.0
  W  W771  1  0.86711000  0.51487000  0.43160000  1.0
  W  W772  1  0.86678000  0.51374000  0.52991000  1.0
  W  W773  1  0.76210000  0.46907000  0.53726000  1.0
  W  W774  1  0.64611000  0.51680000  0.52878000  1.0
  W  W775  1  0.85988000  0.61010000  0.53499000  1.0
  W  W776  1  0.78934000  0.68908000  0.56274000  1.0
  W  W777  1  0.57795000  0.59565000  0.55938000  1.0
  W  W778  1  0.53394000  0.64641000  0.48320000  1.0
  W  W779  1  0.75047000  0.73702000  0.48331000  1.0
  W  W780  1  0.64392000  0.77522000  0.43990000  1.0
  W  W781  1  0.54336000  0.72609000  0.42978000  1.0
  W  W782  1  0.53762000  0.73038000  0.52662000  1.0
  W  W783  1  0.64644000  0.77093000  0.53609000  1.0
  W  W784  1  0.68549000  0.71940000  0.61479000  1.0
  W  W785  1  0.57601000  0.67968000  0.60633000  1.0
  W  W786  1  0.64424000  0.60238000  0.64112000  1.0
  W  W787  1  0.75533000  0.63958000  0.64126000  1.0
  W  W788  1  0.82493000  0.55983000  0.61039000  1.0
  W  W789  1  0.71419000  0.52232000  0.61169000  1.0
  W  W790  1  0.67512000  0.93190000  0.85524000  1.0
  W  W791  1  0.77277000  0.98472000  0.85717000  1.0
  W  W792  1  0.84251000  0.90455000  0.82578000  1.0
  W  W793  1  0.74504000  0.85139000  0.82468000  1.0
  W  W794  1  0.81215000  0.77410000  0.86110000  1.0
  W  W795  1  0.91207000  0.82311000  0.85011000  1.0
  W  W796  1  0.92316000  0.90059000  0.90347000  1.0
  W  W797  1  0.70477000  0.81267000  0.90600000  1.0
  W  W798  1  0.63781000  0.89106000  0.93827000  1.0
  W  W799  1  0.85422000  0.98018000  0.93208000  1.0
  W  W800  1  0.73784000  0.03117000  0.93916000  1.0
  W  W801  1  0.63289000  0.98513000  0.93160000  1.0
  W  W802  1  0.63322000  0.98626000  0.02991000  1.0
  W  W803  1  0.73790000  0.03093000  0.03726000  1.0
  W  W804  1  0.85389000  0.98320000  0.02878000  1.0
  W  W805  1  0.64012000  0.88990000  0.03499000  1.0
  W  W806  1  0.71066000  0.81092000  0.06274000  1.0
  W  W807  1  0.92205000  0.90435000  0.05938000  1.0
  W  W808  1  0.96606000  0.85359000  0.98320000  1.0
  W  W809  1  0.74953000  0.76298000  0.98331000  1.0
  W  W810  1  0.85608000  0.72478000  0.93990000  1.0
  W  W811  1  0.95664000  0.77391000  0.92978000  1.0
  W  W812  1  0.96238000  0.76962000  0.02662000  1.0
  W  W813  1  0.85356000  0.72907000  0.03609000  1.0
  W  W814  1  0.81451000  0.78060000  0.11479000  1.0
  W  W815  1  0.92399000  0.82032000  0.10633000  1.0
  W  W816  1  0.85576000  0.89762000  0.14112000  1.0
  W  W817  1  0.74467000  0.86042000  0.14126000  1.0
  W  W818  1  0.67507000  0.94017000  0.11039000  1.0
  W  W819  1  0.78581000  0.97768000  0.11169000  1.0
  W  W820  1  0.17512000  0.56810000  0.14476000  1.0
  W  W821  1  0.27277000  0.51528000  0.14283000  1.0
  W  W822  1  0.34251000  0.59545000  0.17422000  1.0
  W  W823  1  0.24504000  0.64861000  0.17532000  1.0
  W  W824  1  0.31215000  0.72590000  0.13890000  1.0
  W  W825  1  0.41207000  0.67689000  0.14989000  1.0
  W  W826  1  0.42316000  0.59941000  0.09653000  1.0
  W  W827  1  0.20477000  0.68733000  0.09400000  1.0
  W  W828  1  0.13781000  0.60894000  0.06173000  1.0
  W  W829  1  0.35422000  0.51982000  0.06792000  1.0
  W  W830  1  0.23784000  0.46883000  0.06084000  1.0
  W  W831  1  0.13289000  0.51487000  0.06840000  1.0
  W  W832  1  0.13322000  0.51374000  0.97009000  1.0
  W  W833  1  0.23790000  0.46907000  0.96274000  1.0
  W  W834  1  0.35389000  0.51680000  0.97122000  1.0
  W  W835  1  0.14012000  0.61010000  0.96501000  1.0
  W  W836  1  0.21066000  0.68908000  0.93726000  1.0
  W  W837  1  0.42205000  0.59565000  0.94062000  1.0
  W  W838  1  0.46606000  0.64641000  0.01680000  1.0
  W  W839  1  0.24953000  0.73702000  0.01669000  1.0
  W  W840  1  0.35608000  0.77522000  0.06010000  1.0
  W  W841  1  0.45664000  0.72609000  0.07022000  1.0
  W  W842  1  0.46238000  0.73038000  0.97338000  1.0
  W  W843  1  0.35356000  0.77093000  0.96391000  1.0
  W  W844  1  0.31451000  0.71940000  0.88521000  1.0
  W  W845  1  0.42399000  0.67968000  0.89367000  1.0
  W  W846  1  0.35576000  0.60238000  0.85888000  1.0
  W  W847  1  0.24467000  0.63958000  0.85874000  1.0
  W  W848  1  0.17507000  0.55983000  0.88961000  1.0
  W  W849  1  0.28581000  0.52232000  0.88831000  1.0
  W  W850  1  0.32488000  0.93190000  0.64476000  1.0
  W  W851  1  0.22723000  0.98472000  0.64283000  1.0
  W  W852  1  0.15749000  0.90455000  0.67422000  1.0
  W  W853  1  0.25496000  0.85139000  0.67532000  1.0
  W  W854  1  0.18785000  0.77410000  0.63890000  1.0
  W  W855  1  0.08793000  0.82311000  0.64989000  1.0
  W  W856  1  0.07684000  0.90059000  0.59653000  1.0
  W  W857  1  0.29523000  0.81267000  0.59400000  1.0
  W  W858  1  0.36219000  0.89106000  0.56173000  1.0
  W  W859  1  0.14578000  0.98018000  0.56792000  1.0
  W  W860  1  0.26216000  0.03117000  0.56084000  1.0
  W  W861  1  0.36711000  0.98513000  0.56840000  1.0
  W  W862  1  0.36678000  0.98626000  0.47009000  1.0
  W  W863  1  0.26210000  0.03093000  0.46274000  1.0
  W  W864  1  0.14611000  0.98320000  0.47122000  1.0
  W  W865  1  0.35988000  0.88990000  0.46501000  1.0
  W  W866  1  0.28934000  0.81092000  0.43726000  1.0
  W  W867  1  0.07795000  0.90435000  0.44062000  1.0
  W  W868  1  0.03394000  0.85359000  0.51680000  1.0
  W  W869  1  0.25047000  0.76298000  0.51669000  1.0
  W  W870  1  0.14392000  0.72478000  0.56010000  1.0
  W  W871  1  0.04336000  0.77391000  0.57022000  1.0
  W  W872  1  0.03762000  0.76962000  0.47338000  1.0
  W  W873  1  0.14644000  0.72907000  0.46391000  1.0
  W  W874  1  0.18549000  0.78060000  0.38521000  1.0
  W  W875  1  0.07601000  0.82032000  0.39367000  1.0
  W  W876  1  0.14424000  0.89762000  0.35888000  1.0
  W  W877  1  0.25533000  0.86042000  0.35874000  1.0
  W  W878  1  0.32493000  0.94017000  0.38961000  1.0
  W  W879  1  0.21419000  0.97768000  0.38831000  1.0
  W  W880  1  0.17512000  0.43190000  0.64476000  1.0
  W  W881  1  0.27277000  0.48472000  0.64283000  1.0
  W  W882  1  0.34251000  0.40455000  0.67422000  1.0
  W  W883  1  0.24504000  0.35139000  0.67532000  1.0
  W  W884  1  0.31215000  0.27410000  0.63890000  1.0
  W  W885  1  0.41207000  0.32311000  0.64989000  1.0
  W  W886  1  0.42316000  0.40059000  0.59653000  1.0
  W  W887  1  0.20477000  0.31267000  0.59400000  1.0
  W  W888  1  0.13781000  0.39106000  0.56173000  1.0
  W  W889  1  0.35422000  0.48018000  0.56792000  1.0
  W  W890  1  0.23784000  0.53117000  0.56084000  1.0
  W  W891  1  0.13289000  0.48513000  0.56840000  1.0
  W  W892  1  0.13322000  0.48626000  0.47009000  1.0
  W  W893  1  0.23790000  0.53093000  0.46274000  1.0
  W  W894  1  0.35389000  0.48320000  0.47122000  1.0
  W  W895  1  0.14012000  0.38990000  0.46501000  1.0
  W  W896  1  0.21066000  0.31092000  0.43726000  1.0
  W  W897  1  0.42205000  0.40435000  0.44062000  1.0
  W  W898  1  0.46606000  0.35359000  0.51680000  1.0
  W  W899  1  0.24953000  0.26298000  0.51669000  1.0
  W  W900  1  0.35608000  0.22478000  0.56010000  1.0
  W  W901  1  0.45664000  0.27391000  0.57022000  1.0
  W  W902  1  0.46238000  0.26962000  0.47338000  1.0
  W  W903  1  0.35356000  0.22907000  0.46391000  1.0
  W  W904  1  0.31451000  0.28060000  0.38521000  1.0
  W  W905  1  0.42399000  0.32032000  0.39367000  1.0
  W  W906  1  0.35576000  0.39762000  0.35888000  1.0
  W  W907  1  0.24467000  0.36042000  0.35874000  1.0
  W  W908  1  0.17507000  0.44017000  0.38961000  1.0
  W  W909  1  0.28581000  0.47768000  0.38831000  1.0
  W  W910  1  0.32488000  0.06810000  0.14476000  1.0
  W  W911  1  0.22723000  0.01528000  0.14283000  1.0
  W  W912  1  0.15749000  0.09545000  0.17422000  1.0
  W  W913  1  0.25496000  0.14861000  0.17532000  1.0
  W  W914  1  0.18785000  0.22590000  0.13890000  1.0
  W  W915  1  0.08793000  0.17689000  0.14989000  1.0
  W  W916  1  0.07684000  0.09941000  0.09653000  1.0
  W  W917  1  0.29523000  0.18733000  0.09400000  1.0
  W  W918  1  0.36219000  0.10894000  0.06173000  1.0
  W  W919  1  0.14578000  0.01982000  0.06792000  1.0
  W  W920  1  0.26216000  0.96883000  0.06084000  1.0
  W  W921  1  0.36711000  0.01487000  0.06840000  1.0
  W  W922  1  0.36678000  0.01374000  0.97009000  1.0
  W  W923  1  0.26210000  0.96907000  0.96274000  1.0
  W  W924  1  0.14611000  0.01680000  0.97122000  1.0
  W  W925  1  0.35988000  0.11010000  0.96501000  1.0
  W  W926  1  0.28934000  0.18908000  0.93726000  1.0
  W  W927  1  0.07795000  0.09565000  0.94062000  1.0
  W  W928  1  0.03394000  0.14641000  0.01680000  1.0
  W  W929  1  0.25047000  0.23702000  0.01669000  1.0
  W  W930  1  0.14392000  0.27522000  0.06010000  1.0
  W  W931  1  0.04336000  0.22609000  0.07022000  1.0
  W  W932  1  0.03762000  0.23038000  0.97338000  1.0
  W  W933  1  0.14644000  0.27093000  0.96391000  1.0
  W  W934  1  0.18549000  0.21940000  0.88521000  1.0
  W  W935  1  0.07601000  0.17968000  0.89367000  1.0
  W  W936  1  0.14424000  0.10238000  0.85888000  1.0
  W  W937  1  0.25533000  0.13958000  0.85874000  1.0
  W  W938  1  0.32493000  0.05983000  0.88961000  1.0
  W  W939  1  0.21419000  0.02232000  0.88831000  1.0
  W  W940  1  0.82488000  0.43190000  0.85524000  1.0
  W  W941  1  0.72723000  0.48472000  0.85717000  1.0
  W  W942  1  0.65749000  0.40455000  0.82578000  1.0
  W  W943  1  0.75496000  0.35139000  0.82468000  1.0
  W  W944  1  0.68785000  0.27410000  0.86110000  1.0
  W  W945  1  0.58793000  0.32311000  0.85011000  1.0
  W  W946  1  0.57684000  0.40059000  0.90347000  1.0
  W  W947  1  0.79523000  0.31267000  0.90600000  1.0
  W  W948  1  0.86219000  0.39106000  0.93827000  1.0
  W  W949  1  0.64578000  0.48018000  0.93208000  1.0
  W  W950  1  0.76216000  0.53117000  0.93916000  1.0
  W  W951  1  0.86711000  0.48513000  0.93160000  1.0
  W  W952  1  0.86678000  0.48626000  0.02991000  1.0
  W  W953  1  0.76210000  0.53093000  0.03726000  1.0
  W  W954  1  0.64611000  0.48320000  0.02878000  1.0
  W  W955  1  0.85988000  0.38990000  0.03499000  1.0
  W  W956  1  0.78934000  0.31092000  0.06274000  1.0
  W  W957  1  0.57795000  0.40435000  0.05938000  1.0
  W  W958  1  0.53394000  0.35359000  0.98320000  1.0
  W  W959  1  0.75047000  0.26298000  0.98331000  1.0
  W  W960  1  0.64392000  0.22478000  0.93990000  1.0
  W  W961  1  0.54336000  0.27391000  0.92978000  1.0
  W  W962  1  0.53762000  0.26962000  0.02662000  1.0
  W  W963  1  0.64644000  0.22907000  0.03609000  1.0
  W  W964  1  0.68549000  0.28060000  0.11479000  1.0
  W  W965  1  0.57601000  0.32032000  0.10633000  1.0
  W  W966  1  0.64424000  0.39762000  0.14112000  1.0
  W  W967  1  0.75533000  0.36042000  0.14126000  1.0
  W  W968  1  0.82493000  0.44017000  0.11039000  1.0
  W  W969  1  0.71419000  0.47768000  0.11169000  1.0
  W  W970  1  0.67512000  0.06810000  0.35524000  1.0
  W  W971  1  0.77277000  0.01528000  0.35717000  1.0
  W  W972  1  0.84251000  0.09545000  0.32578000  1.0
  W  W973  1  0.74504000  0.14861000  0.32468000  1.0
  W  W974  1  0.81215000  0.22590000  0.36110000  1.0
  W  W975  1  0.91207000  0.17689000  0.35011000  1.0
  W  W976  1  0.92316000  0.09941000  0.40347000  1.0
  W  W977  1  0.70477000  0.18733000  0.40600000  1.0
  W  W978  1  0.63781000  0.10894000  0.43827000  1.0
  W  W979  1  0.85422000  0.01982000  0.43208000  1.0
  W  W980  1  0.73784000  0.96883000  0.43916000  1.0
  W  W981  1  0.63289000  0.01487000  0.43160000  1.0
  W  W982  1  0.63322000  0.01374000  0.52991000  1.0
  W  W983  1  0.73790000  0.96907000  0.53726000  1.0
  W  W984  1  0.85389000  0.01680000  0.52878000  1.0
  W  W985  1  0.64012000  0.11010000  0.53499000  1.0
  W  W986  1  0.71066000  0.18908000  0.56274000  1.0
  W  W987  1  0.92205000  0.09565000  0.55938000  1.0
  W  W988  1  0.96606000  0.14641000  0.48320000  1.0
  W  W989  1  0.74953000  0.23702000  0.48331000  1.0
  W  W990  1  0.85608000  0.27522000  0.43990000  1.0
  W  W991  1  0.95664000  0.22609000  0.42978000  1.0
  W  W992  1  0.96238000  0.23038000  0.52662000  1.0
  W  W993  1  0.85356000  0.27093000  0.53609000  1.0
  W  W994  1  0.81451000  0.21940000  0.61479000  1.0
  W  W995  1  0.92399000  0.17968000  0.60633000  1.0
  W  W996  1  0.85576000  0.10238000  0.64112000  1.0
  W  W997  1  0.74467000  0.13958000  0.64126000  1.0
  W  W998  1  0.67507000  0.05983000  0.61039000  1.0
  W  W999  1  0.78581000  0.02232000  0.61169000  1.0
  C  C1000  1  0.51110000  0.84850000  0.41200000  1.0
  C  C1001  1  0.48170000  0.85880000  0.38340000  1.0
  C  C1002  1  0.44030000  0.83610000  0.38150000  1.0
  C  C1003  1  0.40660000  0.58730000  0.43250000  1.0
  C  C1004  1  0.36920000  0.59290000  0.41180000  1.0
  C  C1005  1  0.34160000  0.62650000  0.40410000  1.0
  C  C1006  1  0.30570000  0.61340000  0.37960000  1.0
  C  C1007  1  0.26800000  0.64170000  0.36470000  1.0
  C  C1008  1  0.27470000  0.66730000  0.46380000  1.0
  C  C1009  1  0.32110000  0.67760000  0.44370000  1.0
  C  C1010  1  0.35100000  0.65980000  0.42040000  1.0
  C  C1011  1  0.38780000  0.68140000  0.41050000  1.0
  C  C1012  1  0.42880000  0.67310000  0.38510000  1.0
  C  C1013  1  0.55640000  0.86180000  0.42750000  1.0
  C  C1014  1  0.39900000  0.84050000  0.35900000  1.0
  C  C1015  1  0.47280000  0.93820000  0.40920000  1.0
  C  C1016  1  0.50250000  0.88700000  0.33040000  1.0
  C  C1017  1  0.48860000  0.88920000  0.36570000  1.0
  C  C1018  1  0.48610000  0.92500000  0.37480000  1.0
  C  C1019  1  0.51000000  0.85560000  0.30270000  1.0
  C  C1020  1  0.52200000  0.76050000  0.21190000  1.0
  C  C1021  1  0.61310000  0.75430000  0.19020000  1.0
  C  C1022  1  0.63330000  0.75170000  0.15640000  1.0
  C  C1023  1  0.56130000  0.75940000  0.18700000  1.0
  C  C1024  1  0.68130000  0.74930000  0.15100000  1.0
  C  C1025  1  0.67270000  0.69110000  0.22870000  1.0
  C  C1026  1  0.66220000  0.72890000  0.24010000  1.0
  C  C1027  1  0.63900000  0.75160000  0.22350000  1.0
  C  C1028  1  0.64710000  0.78520000  0.24220000  1.0
  C  C1029  1  0.62780000  0.82210000  0.23870000  1.0
  C  C1030  1  0.01030000  0.56400000  0.01230000  1.0
  C  C1031  1  0.95840000  0.57150000  0.00360000  1.0
  C  C1032  1  0.92870000  0.59920000  0.01520000  1.0
  C  C1033  1  0.88350000  0.59740000  0.99340000  1.0
  C  C1034  1  0.83780000  0.61820000  0.99520000  1.0
  C  C1035  1  0.87620000  0.60510000  0.09000000  1.0
  C  C1036  1  0.91590000  0.62330000  0.07620000  1.0
  C  C1037  1  0.93740000  0.62490000  0.03970000  1.0
  C  C1038  1  0.97630000  0.64920000  0.04360000  1.0
  C  C1039  1  0.00740000  0.66060000  0.01470000  1.0
  C  C1040  1  0.82510000  0.68830000  0.20820000  1.0
  C  C1041  1  0.86930000  0.70900000  0.20750000  1.0
  C  C1042  1  0.87670000  0.73880000  0.22890000  1.0
  C  C1043  1  0.91300000  0.75780000  0.21400000  1.0
  C  C1044  1  0.93940000  0.79190000  0.22510000  1.0
  C  C1045  1  0.78010000  0.79220000  0.22420000  1.0
  C  C1046  1  0.80220000  0.77390000  0.25480000  1.0
  C  C1047  1  0.84100000  0.74790000  0.25490000  1.0
  C  C1048  1  0.84790000  0.73940000  0.28970000  1.0
  C  C1049  1  0.87650000  0.71600000  0.30460000  1.0
  C  C1050  1  0.84660000  0.84200000  0.32230000  1.0
  C  C1051  1  0.81370000  0.83930000  0.35280000  1.0
  C  C1052  1  0.82230000  0.84710000  0.38620000  1.0
  C  C1053  1  0.78070000  0.83650000  0.40440000  1.0
  C  C1054  1  0.76890000  0.84130000  0.44380000  1.0
  C  C1055  1  0.90110000  0.81630000  0.44680000  1.0
  C  C1056  1  0.87450000  0.89950000  0.39560000  1.0
  C  C1057  1  0.89570000  0.85150000  0.42770000  1.0
  C  C1058  1  0.86320000  0.86400000  0.40170000  1.0
  C  C1059  1  0.85300000  0.92500000  0.37230000  1.0
  C  C1060  1  0.98890000  0.65150000  0.91200000  1.0
  C  C1061  1  0.01830000  0.64120000  0.88340000  1.0
  C  C1062  1  0.05970000  0.66390000  0.88150000  1.0
  C  C1063  1  0.09340000  0.91270000  0.93250000  1.0
  C  C1064  1  0.13080000  0.90710000  0.91180000  1.0
  C  C1065  1  0.15840000  0.87350000  0.90410000  1.0
  C  C1066  1  0.19430000  0.88660000  0.87960000  1.0
  C  C1067  1  0.23200000  0.85830000  0.86470000  1.0
  C  C1068  1  0.22530000  0.83270000  0.96380000  1.0
  C  C1069  1  0.17890000  0.82240000  0.94370000  1.0
  C  C1070  1  0.14900000  0.84020000  0.92040000  1.0
  C  C1071  1  0.11220000  0.81860000  0.91050000  1.0
  C  C1072  1  0.07120000  0.82690000  0.88510000  1.0
  C  C1073  1  0.94360000  0.63820000  0.92750000  1.0
  C  C1074  1  0.10100000  0.65950000  0.85900000  1.0
  C  C1075  1  0.02720000  0.56180000  0.90920000  1.0
  C  C1076  1  0.99750000  0.61300000  0.83040000  1.0
  C  C1077  1  0.01140000  0.61080000  0.86570000  1.0
  C  C1078  1  0.01390000  0.57500000  0.87480000  1.0
  C  C1079  1  0.99000000  0.64440000  0.80270000  1.0
  C  C1080  1  0.97800000  0.73950000  0.71190000  1.0
  C  C1081  1  0.88690000  0.74570000  0.69020000  1.0
  C  C1082  1  0.86670000  0.74830000  0.65640000  1.0
  C  C1083  1  0.93870000  0.74060000  0.68700000  1.0
  C  C1084  1  0.81870000  0.75070000  0.65100000  1.0
  C  C1085  1  0.82730000  0.80890000  0.72870000  1.0
  C  C1086  1  0.83780000  0.77110000  0.74010000  1.0
  C  C1087  1  0.86100000  0.74840000  0.72350000  1.0
  C  C1088  1  0.85290000  0.71480000  0.74220000  1.0
  C  C1089  1  0.87220000  0.67790000  0.73870000  1.0
  C  C1090  1  0.48970000  0.93600000  0.51230000  1.0
  C  C1091  1  0.54160000  0.92850000  0.50360000  1.0
  C  C1092  1  0.57130000  0.90080000  0.51520000  1.0
  C  C1093  1  0.61650000  0.90260000  0.49340000  1.0
  C  C1094  1  0.66220000  0.88180000  0.49520000  1.0
  C  C1095  1  0.62380000  0.89490000  0.59000000  1.0
  C  C1096  1  0.58410000  0.87670000  0.57620000  1.0
  C  C1097  1  0.56260000  0.87510000  0.53970000  1.0
  C  C1098  1  0.52370000  0.85080000  0.54360000  1.0
  C  C1099  1  0.49260000  0.83940000  0.51470000  1.0
  C  C1100  1  0.67490000  0.81170000  0.70820000  1.0
  C  C1101  1  0.63070000  0.79100000  0.70750000  1.0
  C  C1102  1  0.62330000  0.76120000  0.72890000  1.0
  C  C1103  1  0.58700000  0.74220000  0.71400000  1.0
  C  C1104  1  0.56060000  0.70810000  0.72510000  1.0
  C  C1105  1  0.71990000  0.70780000  0.72420000  1.0
  C  C1106  1  0.69780000  0.72610000  0.75480000  1.0
  C  C1107  1  0.65900000  0.75210000  0.75490000  1.0
  C  C1108  1  0.65210000  0.76060000  0.78970000  1.0
  C  C1109  1  0.62350000  0.78400000  0.80460000  1.0
  C  C1110  1  0.65340000  0.65800000  0.82230000  1.0
  C  C1111  1  0.68630000  0.66070000  0.85280000  1.0
  C  C1112  1  0.67770000  0.65290000  0.88620000  1.0
  C  C1113  1  0.71930000  0.66350000  0.90440000  1.0
  C  C1114  1  0.73110000  0.65870000  0.94380000  1.0
  C  C1115  1  0.59890000  0.68370000  0.94680000  1.0
  C  C1116  1  0.62550000  0.60050000  0.89560000  1.0
  C  C1117  1  0.60430000  0.64850000  0.92770000  1.0
  C  C1118  1  0.63680000  0.63600000  0.90170000  1.0
  C  C1119  1  0.64700000  0.57500000  0.87230000  1.0
  C  C1120  1  0.48890000  0.84850000  0.08800000  1.0
  C  C1121  1  0.51830000  0.85880000  0.11660000  1.0
  C  C1122  1  0.55970000  0.83610000  0.11850000  1.0
  C  C1123  1  0.59340000  0.58730000  0.06750000  1.0
  C  C1124  1  0.63080000  0.59290000  0.08820000  1.0
  C  C1125  1  0.65840000  0.62650000  0.09590000  1.0
  C  C1126  1  0.69430000  0.61340000  0.12040000  1.0
  C  C1127  1  0.73200000  0.64170000  0.13530000  1.0
  C  C1128  1  0.72530000  0.66730000  0.03620000  1.0
  C  C1129  1  0.67890000  0.67760000  0.05630000  1.0
  C  C1130  1  0.64900000  0.65980000  0.07960000  1.0
  C  C1131  1  0.61220000  0.68140000  0.08950000  1.0
  C  C1132  1  0.57120000  0.67310000  0.11490000  1.0
  C  C1133  1  0.44360000  0.86180000  0.07250000  1.0
  C  C1134  1  0.60100000  0.84050000  0.14100000  1.0
  C  C1135  1  0.52720000  0.93820000  0.09080000  1.0
  C  C1136  1  0.49750000  0.88700000  0.16960000  1.0
  C  C1137  1  0.51140000  0.88920000  0.13430000  1.0
  C  C1138  1  0.51390000  0.92500000  0.12520000  1.0
  C  C1139  1  0.49000000  0.85560000  0.19730000  1.0
  C  C1140  1  0.47800000  0.76050000  0.28810000  1.0
  C  C1141  1  0.38690000  0.75430000  0.30980000  1.0
  C  C1142  1  0.36670000  0.75170000  0.34360000  1.0
  C  C1143  1  0.43870000  0.75940000  0.31300000  1.0
  C  C1144  1  0.31870000  0.74930000  0.34900000  1.0
  C  C1145  1  0.32730000  0.69110000  0.27130000  1.0
  C  C1146  1  0.33780000  0.72890000  0.25990000  1.0
  C  C1147  1  0.36100000  0.75160000  0.27650000  1.0
  C  C1148  1  0.35290000  0.78520000  0.25780000  1.0
  C  C1149  1  0.37220000  0.82210000  0.26130000  1.0
  C  C1150  1  0.98970000  0.56400000  0.48770000  1.0
  C  C1151  1  0.04160000  0.57150000  0.49640000  1.0
  C  C1152  1  0.07130000  0.59920000  0.48480000  1.0
  C  C1153  1  0.11650000  0.59740000  0.50660000  1.0
  C  C1154  1  0.16220000  0.61820000  0.50480000  1.0
  C  C1155  1  0.12380000  0.60510000  0.41000000  1.0
  C  C1156  1  0.08410000  0.62330000  0.42380000  1.0
  C  C1157  1  0.06260000  0.62490000  0.46030000  1.0
  C  C1158  1  0.02370000  0.64920000  0.45640000  1.0
  C  C1159  1  0.99260000  0.66060000  0.48530000  1.0
  C  C1160  1  0.17490000  0.68830000  0.29180000  1.0
  C  C1161  1  0.13070000  0.70900000  0.29250000  1.0
  C  C1162  1  0.12330000  0.73880000  0.27110000  1.0
  C  C1163  1  0.08700000  0.75780000  0.28600000  1.0
  C  C1164  1  0.06060000  0.79190000  0.27490000  1.0
  C  C1165  1  0.21990000  0.79220000  0.27580000  1.0
  C  C1166  1  0.19780000  0.77390000  0.24520000  1.0
  C  C1167  1  0.15900000  0.74790000  0.24510000  1.0
  C  C1168  1  0.15210000  0.73940000  0.21030000  1.0
  C  C1169  1  0.12350000  0.71600000  0.19540000  1.0
  C  C1170  1  0.15340000  0.84200000  0.17770000  1.0
  C  C1171  1  0.18630000  0.83930000  0.14720000  1.0
  C  C1172  1  0.17770000  0.84710000  0.11380000  1.0
  C  C1173  1  0.21930000  0.83650000  0.09560000  1.0
  C  C1174  1  0.23110000  0.84130000  0.05620000  1.0
  C  C1175  1  0.09890000  0.81630000  0.05320000  1.0
  C  C1176  1  0.12550000  0.89950000  0.10440000  1.0
  C  C1177  1  0.10430000  0.85150000  0.07230000  1.0
  C  C1178  1  0.13680000  0.86400000  0.09830000  1.0
  C  C1179  1  0.14700000  0.92500000  0.12770000  1.0
  C  C1180  1  0.01110000  0.65150000  0.58800000  1.0
  C  C1181  1  0.98170000  0.64120000  0.61660000  1.0
  C  C1182  1  0.94030000  0.66390000  0.61850000  1.0
  C  C1183  1  0.90660000  0.91270000  0.56750000  1.0
  C  C1184  1  0.86920000  0.90710000  0.58820000  1.0
  C  C1185  1  0.84160000  0.87350000  0.59590000  1.0
  C  C1186  1  0.80570000  0.88660000  0.62040000  1.0
  C  C1187  1  0.76800000  0.85830000  0.63530000  1.0
  C  C1188  1  0.77470000  0.83270000  0.53620000  1.0
  C  C1189  1  0.82110000  0.82240000  0.55630000  1.0
  C  C1190  1  0.85100000  0.84020000  0.57960000  1.0
  C  C1191  1  0.88780000  0.81860000  0.58950000  1.0
  C  C1192  1  0.92880000  0.82690000  0.61490000  1.0
  C  C1193  1  0.05640000  0.63820000  0.57250000  1.0
  C  C1194  1  0.89900000  0.65950000  0.64100000  1.0
  C  C1195  1  0.97280000  0.56180000  0.59080000  1.0
  C  C1196  1  0.00250000  0.61300000  0.66960000  1.0
  C  C1197  1  0.98860000  0.61080000  0.63430000  1.0
  C  C1198  1  0.98610000  0.57500000  0.62520000  1.0
  C  C1199  1  0.01000000  0.64440000  0.69730000  1.0
  C  C1200  1  0.02200000  0.73950000  0.78810000  1.0
  C  C1201  1  0.11310000  0.74570000  0.80980000  1.0
  C  C1202  1  0.13330000  0.74830000  0.84360000  1.0
  C  C1203  1  0.06130000  0.74060000  0.81300000  1.0
  C  C1204  1  0.18130000  0.75070000  0.84900000  1.0
  C  C1205  1  0.17270000  0.80890000  0.77130000  1.0
  C  C1206  1  0.16220000  0.77110000  0.75990000  1.0
  C  C1207  1  0.13900000  0.74840000  0.77650000  1.0
  C  C1208  1  0.14710000  0.71480000  0.75780000  1.0
  C  C1209  1  0.12780000  0.67790000  0.76130000  1.0
  C  C1210  1  0.51030000  0.93600000  0.98770000  1.0
  C  C1211  1  0.45840000  0.92850000  0.99640000  1.0
  C  C1212  1  0.42870000  0.90080000  0.98480000  1.0
  C  C1213  1  0.38350000  0.90260000  0.00660000  1.0
  C  C1214  1  0.33780000  0.88180000  0.00480000  1.0
  C  C1215  1  0.37620000  0.89490000  0.91000000  1.0
  C  C1216  1  0.41590000  0.87670000  0.92380000  1.0
  C  C1217  1  0.43740000  0.87510000  0.96030000  1.0
  C  C1218  1  0.47630000  0.85080000  0.95640000  1.0
  C  C1219  1  0.50740000  0.83940000  0.98530000  1.0
  C  C1220  1  0.32510000  0.81170000  0.79180000  1.0
  C  C1221  1  0.36930000  0.79100000  0.79250000  1.0
  C  C1222  1  0.37670000  0.76120000  0.77110000  1.0
  C  C1223  1  0.41300000  0.74220000  0.78600000  1.0
  C  C1224  1  0.43940000  0.70810000  0.77490000  1.0
  C  C1225  1  0.28010000  0.70780000  0.77580000  1.0
  C  C1226  1  0.30220000  0.72610000  0.74520000  1.0
  C  C1227  1  0.34100000  0.75210000  0.74510000  1.0
  C  C1228  1  0.34790000  0.76060000  0.71030000  1.0
  C  C1229  1  0.37650000  0.78400000  0.69540000  1.0
  C  C1230  1  0.34660000  0.65800000  0.67770000  1.0
  C  C1231  1  0.31370000  0.66070000  0.64720000  1.0
  C  C1232  1  0.32230000  0.65290000  0.61380000  1.0
  C  C1233  1  0.28070000  0.66350000  0.59560000  1.0
  C  C1234  1  0.26890000  0.65870000  0.55620000  1.0
  C  C1235  1  0.40110000  0.68370000  0.55320000  1.0
  C  C1236  1  0.37450000  0.60050000  0.60440000  1.0
  C  C1237  1  0.39570000  0.64850000  0.57230000  1.0
  C  C1238  1  0.36320000  0.63600000  0.59830000  1.0
  C  C1239  1  0.35300000  0.57500000  0.62770000  1.0
  C  C1240  1  0.48890000  0.15150000  0.58800000  1.0
  C  C1241  1  0.51830000  0.14120000  0.61660000  1.0
  C  C1242  1  0.55970000  0.16390000  0.61850000  1.0
  C  C1243  1  0.59340000  0.41270000  0.56750000  1.0
  C  C1244  1  0.63080000  0.40710000  0.58820000  1.0
  C  C1245  1  0.65840000  0.37350000  0.59590000  1.0
  C  C1246  1  0.69430000  0.38660000  0.62040000  1.0
  C  C1247  1  0.73200000  0.35830000  0.63530000  1.0
  C  C1248  1  0.72530000  0.33270000  0.53620000  1.0
  C  C1249  1  0.67890000  0.32240000  0.55630000  1.0
  C  C1250  1  0.64900000  0.34020000  0.57960000  1.0
  C  C1251  1  0.61220000  0.31860000  0.58950000  1.0
  C  C1252  1  0.57120000  0.32690000  0.61490000  1.0
  C  C1253  1  0.44360000  0.13820000  0.57250000  1.0
  C  C1254  1  0.60100000  0.15950000  0.64100000  1.0
  C  C1255  1  0.52720000  0.06180000  0.59080000  1.0
  C  C1256  1  0.49750000  0.11300000  0.66960000  1.0
  C  C1257  1  0.51140000  0.11080000  0.63430000  1.0
  C  C1258  1  0.51390000  0.07500000  0.62520000  1.0
  C  C1259  1  0.49000000  0.14440000  0.69730000  1.0
  C  C1260  1  0.47800000  0.23950000  0.78810000  1.0
  C  C1261  1  0.38690000  0.24570000  0.80980000  1.0
  C  C1262  1  0.36670000  0.24830000  0.84360000  1.0
  C  C1263  1  0.43870000  0.24060000  0.81300000  1.0
  C  C1264  1  0.31870000  0.25070000  0.84900000  1.0
  C  C1265  1  0.32730000  0.30890000  0.77130000  1.0
  C  C1266  1  0.33780000  0.27110000  0.75990000  1.0
  C  C1267  1  0.36100000  0.24840000  0.77650000  1.0
  C  C1268  1  0.35290000  0.21480000  0.75780000  1.0
  C  C1269  1  0.37220000  0.17790000  0.76130000  1.0
  C  C1270  1  0.98970000  0.43600000  0.98770000  1.0
  C  C1271  1  0.04160000  0.42850000  0.99640000  1.0
  C  C1272  1  0.07130000  0.40080000  0.98480000  1.0
  C  C1273  1  0.11650000  0.40260000  0.00660000  1.0
  C  C1274  1  0.16220000  0.38180000  0.00480000  1.0
  C  C1275  1  0.12380000  0.39490000  0.91000000  1.0
  C  C1276  1  0.08410000  0.37670000  0.92380000  1.0
  C  C1277  1  0.06260000  0.37510000  0.96030000  1.0
  C  C1278  1  0.02370000  0.35080000  0.95640000  1.0
  C  C1279  1  0.99260000  0.33940000  0.98530000  1.0
  C  C1280  1  0.17490000  0.31170000  0.79180000  1.0
  C  C1281  1  0.13070000  0.29100000  0.79250000  1.0
  C  C1282  1  0.12330000  0.26120000  0.77110000  1.0
  C  C1283  1  0.08700000  0.24220000  0.78600000  1.0
  C  C1284  1  0.06060000  0.20810000  0.77490000  1.0
  C  C1285  1  0.21990000  0.20780000  0.77580000  1.0
  C  C1286  1  0.19780000  0.22610000  0.74520000  1.0
  C  C1287  1  0.15900000  0.25210000  0.74510000  1.0
  C  C1288  1  0.15210000  0.26060000  0.71030000  1.0
  C  C1289  1  0.12350000  0.28400000  0.69540000  1.0
  C  C1290  1  0.15340000  0.15800000  0.67770000  1.0
  C  C1291  1  0.18630000  0.16070000  0.64720000  1.0
  C  C1292  1  0.17770000  0.15290000  0.61380000  1.0
  C  C1293  1  0.21930000  0.16350000  0.59560000  1.0
  C  C1294  1  0.23110000  0.15870000  0.55620000  1.0
  C  C1295  1  0.09890000  0.18370000  0.55320000  1.0
  C  C1296  1  0.12550000  0.10050000  0.60440000  1.0
  C  C1297  1  0.10430000  0.14850000  0.57230000  1.0
  C  C1298  1  0.13680000  0.13600000  0.59830000  1.0
  C  C1299  1  0.14700000  0.07500000  0.62770000  1.0
  C  C1300  1  0.01110000  0.34850000  0.08800000  1.0
  C  C1301  1  0.98170000  0.35880000  0.11660000  1.0
  C  C1302  1  0.94030000  0.33610000  0.11850000  1.0
  C  C1303  1  0.90660000  0.08730000  0.06750000  1.0
  C  C1304  1  0.86920000  0.09290000  0.08820000  1.0
  C  C1305  1  0.84160000  0.12650000  0.09590000  1.0
  C  C1306  1  0.80570000  0.11340000  0.12040000  1.0
  C  C1307  1  0.76800000  0.14170000  0.13530000  1.0
  C  C1308  1  0.77470000  0.16730000  0.03620000  1.0
  C  C1309  1  0.82110000  0.17760000  0.05630000  1.0
  C  C1310  1  0.85100000  0.15980000  0.07960000  1.0
  C  C1311  1  0.88780000  0.18140000  0.08950000  1.0
  C  C1312  1  0.92880000  0.17310000  0.11490000  1.0
  C  C1313  1  0.05640000  0.36180000  0.07250000  1.0
  C  C1314  1  0.89900000  0.34050000  0.14100000  1.0
  C  C1315  1  0.97280000  0.43820000  0.09080000  1.0
  C  C1316  1  0.00250000  0.38700000  0.16960000  1.0
  C  C1317  1  0.98860000  0.38920000  0.13430000  1.0
  C  C1318  1  0.98610000  0.42500000  0.12520000  1.0
  C  C1319  1  0.01000000  0.35560000  0.19730000  1.0
  C  C1320  1  0.02200000  0.26050000  0.28810000  1.0
  C  C1321  1  0.11310000  0.25430000  0.30980000  1.0
  C  C1322  1  0.13330000  0.25170000  0.34360000  1.0
  C  C1323  1  0.06130000  0.25940000  0.31300000  1.0
  C  C1324  1  0.18130000  0.24930000  0.34900000  1.0
  C  C1325  1  0.17270000  0.19110000  0.27130000  1.0
  C  C1326  1  0.16220000  0.22890000  0.25990000  1.0
  C  C1327  1  0.13900000  0.25160000  0.27650000  1.0
  C  C1328  1  0.14710000  0.28520000  0.25780000  1.0
  C  C1329  1  0.12780000  0.32210000  0.26130000  1.0
  C  C1330  1  0.51030000  0.06400000  0.48770000  1.0
  C  C1331  1  0.45840000  0.07150000  0.49640000  1.0
  C  C1332  1  0.42870000  0.09920000  0.48480000  1.0
  C  C1333  1  0.38350000  0.09740000  0.50660000  1.0
  C  C1334  1  0.33780000  0.11820000  0.50480000  1.0
  C  C1335  1  0.37620000  0.10510000  0.41000000  1.0
  C  C1336  1  0.41590000  0.12330000  0.42380000  1.0
  C  C1337  1  0.43740000  0.12490000  0.46030000  1.0
  C  C1338  1  0.47630000  0.14920000  0.45640000  1.0
  C  C1339  1  0.50740000  0.16060000  0.48530000  1.0
  C  C1340  1  0.32510000  0.18830000  0.29180000  1.0
  C  C1341  1  0.36930000  0.20900000  0.29250000  1.0
  C  C1342  1  0.37670000  0.23880000  0.27110000  1.0
  C  C1343  1  0.41300000  0.25780000  0.28600000  1.0
  C  C1344  1  0.43940000  0.29190000  0.27490000  1.0
  C  C1345  1  0.28010000  0.29220000  0.27580000  1.0
  C  C1346  1  0.30220000  0.27390000  0.24520000  1.0
  C  C1347  1  0.34100000  0.24790000  0.24510000  1.0
  C  C1348  1  0.34790000  0.23940000  0.21030000  1.0
  C  C1349  1  0.37650000  0.21600000  0.19540000  1.0
  C  C1350  1  0.34660000  0.34200000  0.17770000  1.0
  C  C1351  1  0.31370000  0.33930000  0.14720000  1.0
  C  C1352  1  0.32230000  0.34710000  0.11380000  1.0
  C  C1353  1  0.28070000  0.33650000  0.09560000  1.0
  C  C1354  1  0.26890000  0.34130000  0.05620000  1.0
  C  C1355  1  0.40110000  0.31630000  0.05320000  1.0
  C  C1356  1  0.37450000  0.39950000  0.10440000  1.0
  C  C1357  1  0.39570000  0.35150000  0.07230000  1.0
  C  C1358  1  0.36320000  0.36400000  0.09830000  1.0
  C  C1359  1  0.35300000  0.42500000  0.12770000  1.0
  C  C1360  1  0.51110000  0.15150000  0.91200000  1.0
  C  C1361  1  0.48170000  0.14120000  0.88340000  1.0
  C  C1362  1  0.44030000  0.16390000  0.88150000  1.0
  C  C1363  1  0.40660000  0.41270000  0.93250000  1.0
  C  C1364  1  0.36920000  0.40710000  0.91180000  1.0
  C  C1365  1  0.34160000  0.37350000  0.90410000  1.0
  C  C1366  1  0.30570000  0.38660000  0.87960000  1.0
  C  C1367  1  0.26800000  0.35830000  0.86470000  1.0
  C  C1368  1  0.27470000  0.33270000  0.96380000  1.0
  C  C1369  1  0.32110000  0.32240000  0.94370000  1.0
  C  C1370  1  0.35100000  0.34020000  0.92040000  1.0
  C  C1371  1  0.38780000  0.31860000  0.91050000  1.0
  C  C1372  1  0.42880000  0.32690000  0.88510000  1.0
  C  C1373  1  0.55640000  0.13820000  0.92750000  1.0
  C  C1374  1  0.39900000  0.15950000  0.85900000  1.0
  C  C1375  1  0.47280000  0.06180000  0.90920000  1.0
  C  C1376  1  0.50250000  0.11300000  0.83040000  1.0
  C  C1377  1  0.48860000  0.11080000  0.86570000  1.0
  C  C1378  1  0.48610000  0.07500000  0.87480000  1.0
  C  C1379  1  0.51000000  0.14440000  0.80270000  1.0
  C  C1380  1  0.52200000  0.23950000  0.71190000  1.0
  C  C1381  1  0.61310000  0.24570000  0.69020000  1.0
  C  C1382  1  0.63330000  0.24830000  0.65640000  1.0
  C  C1383  1  0.56130000  0.24060000  0.68700000  1.0
  C  C1384  1  0.68130000  0.25070000  0.65100000  1.0
  C  C1385  1  0.67270000  0.30890000  0.72870000  1.0
  C  C1386  1  0.66220000  0.27110000  0.74010000  1.0
  C  C1387  1  0.63900000  0.24840000  0.72350000  1.0
  C  C1388  1  0.64710000  0.21480000  0.74220000  1.0
  C  C1389  1  0.62780000  0.17790000  0.73870000  1.0
  C  C1390  1  0.01030000  0.43600000  0.51230000  1.0
  C  C1391  1  0.95840000  0.42850000  0.50360000  1.0
  C  C1392  1  0.92870000  0.40080000  0.51520000  1.0
  C  C1393  1  0.88350000  0.40260000  0.49340000  1.0
  C  C1394  1  0.83780000  0.38180000  0.49520000  1.0
  C  C1395  1  0.87620000  0.39490000  0.59000000  1.0
  C  C1396  1  0.91590000  0.37670000  0.57620000  1.0
  C  C1397  1  0.93740000  0.37510000  0.53970000  1.0
  C  C1398  1  0.97630000  0.35080000  0.54360000  1.0
  C  C1399  1  0.00740000  0.33940000  0.51470000  1.0
  C  C1400  1  0.82510000  0.31170000  0.70820000  1.0
  C  C1401  1  0.86930000  0.29100000  0.70750000  1.0
  C  C1402  1  0.87670000  0.26120000  0.72890000  1.0
  C  C1403  1  0.91300000  0.24220000  0.71400000  1.0
  C  C1404  1  0.93940000  0.20810000  0.72510000  1.0
  C  C1405  1  0.78010000  0.20780000  0.72420000  1.0
  C  C1406  1  0.80220000  0.22610000  0.75480000  1.0
  C  C1407  1  0.84100000  0.25210000  0.75490000  1.0
  C  C1408  1  0.84790000  0.26060000  0.78970000  1.0
  C  C1409  1  0.87650000  0.28400000  0.80460000  1.0
  C  C1410  1  0.84660000  0.15800000  0.82230000  1.0
  C  C1411  1  0.81370000  0.16070000  0.85280000  1.0
  C  C1412  1  0.82230000  0.15290000  0.88620000  1.0
  C  C1413  1  0.78070000  0.16350000  0.90440000  1.0
  C  C1414  1  0.76890000  0.15870000  0.94380000  1.0
  C  C1415  1  0.90110000  0.18370000  0.94680000  1.0
  C  C1416  1  0.87450000  0.10050000  0.89560000  1.0
  C  C1417  1  0.89570000  0.14850000  0.92770000  1.0
  C  C1418  1  0.86320000  0.13600000  0.90170000  1.0
  C  C1419  1  0.85300000  0.07500000  0.87230000  1.0
  C  C1420  1  0.98890000  0.34850000  0.41200000  1.0
  C  C1421  1  0.01830000  0.35880000  0.38340000  1.0
  C  C1422  1  0.05970000  0.33610000  0.38150000  1.0
  C  C1423  1  0.09340000  0.08730000  0.43250000  1.0
  C  C1424  1  0.13080000  0.09290000  0.41180000  1.0
  C  C1425  1  0.15840000  0.12650000  0.40410000  1.0
  C  C1426  1  0.19430000  0.11340000  0.37960000  1.0
  C  C1427  1  0.23200000  0.14170000  0.36470000  1.0
  C  C1428  1  0.22530000  0.16730000  0.46380000  1.0
  C  C1429  1  0.17890000  0.17760000  0.44370000  1.0
  C  C1430  1  0.14900000  0.15980000  0.42040000  1.0
  C  C1431  1  0.11220000  0.18140000  0.41050000  1.0
  C  C1432  1  0.07120000  0.17310000  0.38510000  1.0
  C  C1433  1  0.94360000  0.36180000  0.42750000  1.0
  C  C1434  1  0.10100000  0.34050000  0.35900000  1.0
  C  C1435  1  0.02720000  0.43820000  0.40920000  1.0
  C  C1436  1  0.99750000  0.38700000  0.33040000  1.0
  C  C1437  1  0.01140000  0.38920000  0.36570000  1.0
  C  C1438  1  0.01390000  0.42500000  0.37480000  1.0
  C  C1439  1  0.99000000  0.35560000  0.30270000  1.0
  C  C1440  1  0.97800000  0.26050000  0.21190000  1.0
  C  C1441  1  0.88690000  0.25430000  0.19020000  1.0
  C  C1442  1  0.86670000  0.25170000  0.15640000  1.0
  C  C1443  1  0.93870000  0.25940000  0.18700000  1.0
  C  C1444  1  0.81870000  0.24930000  0.15100000  1.0
  C  C1445  1  0.82730000  0.19110000  0.22870000  1.0
  C  C1446  1  0.83780000  0.22890000  0.24010000  1.0
  C  C1447  1  0.86100000  0.25160000  0.22350000  1.0
  C  C1448  1  0.85290000  0.28520000  0.24220000  1.0
  C  C1449  1  0.87220000  0.32210000  0.23870000  1.0
  C  C1450  1  0.48970000  0.06400000  0.01230000  1.0
  C  C1451  1  0.54160000  0.07150000  0.00360000  1.0
  C  C1452  1  0.57130000  0.09920000  0.01520000  1.0
  C  C1453  1  0.61650000  0.09740000  0.99340000  1.0
  C  C1454  1  0.66220000  0.11820000  0.99520000  1.0
  C  C1455  1  0.62380000  0.10510000  0.09000000  1.0
  C  C1456  1  0.58410000  0.12330000  0.07620000  1.0
  C  C1457  1  0.56260000  0.12490000  0.03970000  1.0
  C  C1458  1  0.52370000  0.14920000  0.04360000  1.0
  C  C1459  1  0.49260000  0.16060000  0.01470000  1.0
  C  C1460  1  0.67490000  0.18830000  0.20820000  1.0
  C  C1461  1  0.63070000  0.20900000  0.20750000  1.0
  C  C1462  1  0.62330000  0.23880000  0.22890000  1.0
  C  C1463  1  0.58700000  0.25780000  0.21400000  1.0
  C  C1464  1  0.56060000  0.29190000  0.22510000  1.0
  C  C1465  1  0.71990000  0.29220000  0.22420000  1.0
  C  C1466  1  0.69780000  0.27390000  0.25480000  1.0
  C  C1467  1  0.65900000  0.24790000  0.25490000  1.0
  C  C1468  1  0.65210000  0.23940000  0.28970000  1.0
  C  C1469  1  0.62350000  0.21600000  0.30460000  1.0
  C  C1470  1  0.65340000  0.34200000  0.32230000  1.0
  C  C1471  1  0.68630000  0.33930000  0.35280000  1.0
  C  C1472  1  0.67770000  0.34710000  0.38620000  1.0
  C  C1473  1  0.71930000  0.33650000  0.40440000  1.0
  C  C1474  1  0.73110000  0.34130000  0.44380000  1.0
  C  C1475  1  0.59890000  0.31630000  0.44680000  1.0
  C  C1476  1  0.62550000  0.39950000  0.39560000  1.0
  C  C1477  1  0.60430000  0.35150000  0.42770000  1.0
  C  C1478  1  0.63680000  0.36400000  0.40170000  1.0
  C  C1479  1  0.64700000  0.42500000  0.37230000  1.0
  N  N1480  1  0.34730000  0.56940000  0.39300000  1.0
  N  N1481  1  0.30990000  0.58210000  0.37420000  1.0
  N  N1482  1  0.34130000  0.70660000  0.44710000  1.0
  N  N1483  1  0.38210000  0.71290000  0.42660000  1.0
  N  N1484  1  0.44410000  0.81180000  0.40890000  1.0
  N  N1485  1  0.48790000  0.81940000  0.42780000  1.0
  N  N1486  1  0.68750000  0.74160000  0.26610000  1.0
  N  N1487  1  0.67830000  0.77670000  0.26970000  1.0
  N  N1488  1  0.93500000  0.55580000  0.97820000  1.0
  N  N1489  1  0.89060000  0.57030000  0.97320000  1.0
  N  N1490  1  0.94000000  0.64950000  0.09590000  1.0
  N  N1491  1  0.97280000  0.66290000  0.07350000  1.0
  N  N1492  1  0.93410000  0.73740000  0.19190000  1.0
  N  N1493  1  0.90490000  0.70680000  0.18490000  1.0
  N  N1494  1  0.78460000  0.77860000  0.28440000  1.0
  N  N1495  1  0.81100000  0.75740000  0.30790000  1.0
  N  N1496  1  0.74930000  0.82270000  0.38040000  1.0
  N  N1497  1  0.76670000  0.82370000  0.34790000  1.0
  N  N1498  1  0.49840000  0.94480000  0.34510000  1.0
  N  N1499  1  0.50850000  0.92140000  0.31770000  1.0
  N  N1500  1  0.59390000  0.75510000  0.13240000  1.0
  N  N1501  1  0.54940000  0.75990000  0.15130000  1.0
  N  N1502  1  0.91400000  0.90900000  0.41790000  1.0
  N  N1503  1  0.92710000  0.87940000  0.43770000  1.0
  N  N1504  1  0.15270000  0.93060000  0.89300000  1.0
  N  N1505  1  0.19010000  0.91790000  0.87420000  1.0
  N  N1506  1  0.15870000  0.79340000  0.94710000  1.0
  N  N1507  1  0.11790000  0.78710000  0.92660000  1.0
  N  N1508  1  0.05590000  0.68820000  0.90890000  1.0
  N  N1509  1  0.01210000  0.68060000  0.92780000  1.0
  N  N1510  1  0.81250000  0.75840000  0.76610000  1.0
  N  N1511  1  0.82170000  0.72330000  0.76970000  1.0
  N  N1512  1  0.56500000  0.94420000  0.47820000  1.0
  N  N1513  1  0.60940000  0.92970000  0.47320000  1.0
  N  N1514  1  0.56000000  0.85050000  0.59590000  1.0
  N  N1515  1  0.52720000  0.83710000  0.57350000  1.0
  N  N1516  1  0.56590000  0.76260000  0.69190000  1.0
  N  N1517  1  0.59510000  0.79320000  0.68490000  1.0
  N  N1518  1  0.71540000  0.72140000  0.78440000  1.0
  N  N1519  1  0.68900000  0.74260000  0.80790000  1.0
  N  N1520  1  0.75070000  0.67730000  0.88040000  1.0
  N  N1521  1  0.73330000  0.67630000  0.84790000  1.0
  N  N1522  1  0.00160000  0.55520000  0.84510000  1.0
  N  N1523  1  0.99150000  0.57860000  0.81770000  1.0
  N  N1524  1  0.90610000  0.74490000  0.63240000  1.0
  N  N1525  1  0.95060000  0.74010000  0.65130000  1.0
  N  N1526  1  0.58600000  0.59100000  0.91790000  1.0
  N  N1527  1  0.57290000  0.62060000  0.93770000  1.0
  N  N1528  1  0.65270000  0.56940000  0.10700000  1.0
  N  N1529  1  0.69010000  0.58210000  0.12580000  1.0
  N  N1530  1  0.65870000  0.70660000  0.05290000  1.0
  N  N1531  1  0.61790000  0.71290000  0.07340000  1.0
  N  N1532  1  0.55590000  0.81180000  0.09110000  1.0
  N  N1533  1  0.51210000  0.81940000  0.07220000  1.0
  N  N1534  1  0.31250000  0.74160000  0.23390000  1.0
  N  N1535  1  0.32170000  0.77670000  0.23030000  1.0
  N  N1536  1  0.06500000  0.55580000  0.52180000  1.0
  N  N1537  1  0.10940000  0.57030000  0.52680000  1.0
  N  N1538  1  0.06000000  0.64950000  0.40410000  1.0
  N  N1539  1  0.02720000  0.66290000  0.42650000  1.0
  N  N1540  1  0.06590000  0.73740000  0.30810000  1.0
  N  N1541  1  0.09510000  0.70680000  0.31510000  1.0
  N  N1542  1  0.21540000  0.77860000  0.21560000  1.0
  N  N1543  1  0.18900000  0.75740000  0.19210000  1.0
  N  N1544  1  0.25070000  0.82270000  0.11960000  1.0
  N  N1545  1  0.23330000  0.82370000  0.15210000  1.0
  N  N1546  1  0.50160000  0.94480000  0.15490000  1.0
  N  N1547  1  0.49150000  0.92140000  0.18230000  1.0
  N  N1548  1  0.40610000  0.75510000  0.36760000  1.0
  N  N1549  1  0.45060000  0.75990000  0.34870000  1.0
  N  N1550  1  0.08600000  0.90900000  0.08210000  1.0
  N  N1551  1  0.07290000  0.87940000  0.06230000  1.0
  N  N1552  1  0.84730000  0.93060000  0.60700000  1.0
  N  N1553  1  0.80990000  0.91790000  0.62580000  1.0
  N  N1554  1  0.84130000  0.79340000  0.55290000  1.0
  N  N1555  1  0.88210000  0.78710000  0.57340000  1.0
  N  N1556  1  0.94410000  0.68820000  0.59110000  1.0
  N  N1557  1  0.98790000  0.68060000  0.57220000  1.0
  N  N1558  1  0.18750000  0.75840000  0.73390000  1.0
  N  N1559  1  0.17830000  0.72330000  0.73030000  1.0
  N  N1560  1  0.43500000  0.94420000  0.02180000  1.0
  N  N1561  1  0.39060000  0.92970000  0.02680000  1.0
  N  N1562  1  0.44000000  0.85050000  0.90410000  1.0
  N  N1563  1  0.47280000  0.83710000  0.92650000  1.0
  N  N1564  1  0.43410000  0.76260000  0.80810000  1.0
  N  N1565  1  0.40490000  0.79320000  0.81510000  1.0
  N  N1566  1  0.28460000  0.72140000  0.71560000  1.0
  N  N1567  1  0.31100000  0.74260000  0.69210000  1.0
  N  N1568  1  0.24930000  0.67730000  0.61960000  1.0
  N  N1569  1  0.26670000  0.67630000  0.65210000  1.0
  N  N1570  1  0.99840000  0.55520000  0.65490000  1.0
  N  N1571  1  0.00850000  0.57860000  0.68230000  1.0
  N  N1572  1  0.09390000  0.74490000  0.86760000  1.0
  N  N1573  1  0.04940000  0.74010000  0.84870000  1.0
  N  N1574  1  0.41400000  0.59100000  0.58210000  1.0
  N  N1575  1  0.42710000  0.62060000  0.56230000  1.0
  N  N1576  1  0.65270000  0.43060000  0.60700000  1.0
  N  N1577  1  0.69010000  0.41790000  0.62580000  1.0
  N  N1578  1  0.65870000  0.29340000  0.55290000  1.0
  N  N1579  1  0.61790000  0.28710000  0.57340000  1.0
  N  N1580  1  0.55590000  0.18820000  0.59110000  1.0
  N  N1581  1  0.51210000  0.18060000  0.57220000  1.0
  N  N1582  1  0.31250000  0.25840000  0.73390000  1.0
  N  N1583  1  0.32170000  0.22330000  0.73030000  1.0
  N  N1584  1  0.06500000  0.44420000  0.02180000  1.0
  N  N1585  1  0.10940000  0.42970000  0.02680000  1.0
  N  N1586  1  0.06000000  0.35050000  0.90410000  1.0
  N  N1587  1  0.02720000  0.33710000  0.92650000  1.0
  N  N1588  1  0.06590000  0.26260000  0.80810000  1.0
  N  N1589  1  0.09510000  0.29320000  0.81510000  1.0
  N  N1590  1  0.21540000  0.22140000  0.71560000  1.0
  N  N1591  1  0.18900000  0.24260000  0.69210000  1.0
  N  N1592  1  0.25070000  0.17730000  0.61960000  1.0
  N  N1593  1  0.23330000  0.17630000  0.65210000  1.0
  N  N1594  1  0.50160000  0.05520000  0.65490000  1.0
  N  N1595  1  0.49150000  0.07860000  0.68230000  1.0
  N  N1596  1  0.40610000  0.24490000  0.86760000  1.0
  N  N1597  1  0.45060000  0.24010000  0.84870000  1.0
  N  N1598  1  0.08600000  0.09100000  0.58210000  1.0
  N  N1599  1  0.07290000  0.12060000  0.56230000  1.0
  N  N1600  1  0.84730000  0.06940000  0.10700000  1.0
  N  N1601  1  0.80990000  0.08210000  0.12580000  1.0
  N  N1602  1  0.84130000  0.20660000  0.05290000  1.0
  N  N1603  1  0.88210000  0.21290000  0.07340000  1.0
  N  N1604  1  0.94410000  0.31180000  0.09110000  1.0
  N  N1605  1  0.98790000  0.31940000  0.07220000  1.0
  N  N1606  1  0.18750000  0.24160000  0.23390000  1.0
  N  N1607  1  0.17830000  0.27670000  0.23030000  1.0
  N  N1608  1  0.43500000  0.05580000  0.52180000  1.0
  N  N1609  1  0.39060000  0.07030000  0.52680000  1.0
  N  N1610  1  0.44000000  0.14950000  0.40410000  1.0
  N  N1611  1  0.47280000  0.16290000  0.42650000  1.0
  N  N1612  1  0.43410000  0.23740000  0.30810000  1.0
  N  N1613  1  0.40490000  0.20680000  0.31510000  1.0
  N  N1614  1  0.28460000  0.27860000  0.21560000  1.0
  N  N1615  1  0.31100000  0.25740000  0.19210000  1.0
  N  N1616  1  0.24930000  0.32270000  0.11960000  1.0
  N  N1617  1  0.26670000  0.32370000  0.15210000  1.0
  N  N1618  1  0.99840000  0.44480000  0.15490000  1.0
  N  N1619  1  0.00850000  0.42140000  0.18230000  1.0
  N  N1620  1  0.09390000  0.25510000  0.36760000  1.0
  N  N1621  1  0.04940000  0.25990000  0.34870000  1.0
  N  N1622  1  0.41400000  0.40900000  0.08210000  1.0
  N  N1623  1  0.42710000  0.37940000  0.06230000  1.0
  N  N1624  1  0.34730000  0.43060000  0.89300000  1.0
  N  N1625  1  0.30990000  0.41790000  0.87420000  1.0
  N  N1626  1  0.34130000  0.29340000  0.94710000  1.0
  N  N1627  1  0.38210000  0.28710000  0.92660000  1.0
  N  N1628  1  0.44410000  0.18820000  0.90890000  1.0
  N  N1629  1  0.48790000  0.18060000  0.92780000  1.0
  N  N1630  1  0.68750000  0.25840000  0.76610000  1.0
  N  N1631  1  0.67830000  0.22330000  0.76970000  1.0
  N  N1632  1  0.93500000  0.44420000  0.47820000  1.0
  N  N1633  1  0.89060000  0.42970000  0.47320000  1.0
  N  N1634  1  0.94000000  0.35050000  0.59590000  1.0
  N  N1635  1  0.97280000  0.33710000  0.57350000  1.0
  N  N1636  1  0.93410000  0.26260000  0.69190000  1.0
  N  N1637  1  0.90490000  0.29320000  0.68490000  1.0
  N  N1638  1  0.78460000  0.22140000  0.78440000  1.0
  N  N1639  1  0.81100000  0.24260000  0.80790000  1.0
  N  N1640  1  0.74930000  0.17730000  0.88040000  1.0
  N  N1641  1  0.76670000  0.17630000  0.84790000  1.0
  N  N1642  1  0.49840000  0.05520000  0.84510000  1.0
  N  N1643  1  0.50850000  0.07860000  0.81770000  1.0
  N  N1644  1  0.59390000  0.24490000  0.63240000  1.0
  N  N1645  1  0.54940000  0.24010000  0.65130000  1.0
  N  N1646  1  0.91400000  0.09100000  0.91790000  1.0
  N  N1647  1  0.92710000  0.12060000  0.93770000  1.0
  N  N1648  1  0.15270000  0.06940000  0.39300000  1.0
  N  N1649  1  0.19010000  0.08210000  0.37420000  1.0
  N  N1650  1  0.15870000  0.20660000  0.44710000  1.0
  N  N1651  1  0.11790000  0.21290000  0.42660000  1.0
  N  N1652  1  0.05590000  0.31180000  0.40890000  1.0
  N  N1653  1  0.01210000  0.31940000  0.42780000  1.0
  N  N1654  1  0.81250000  0.24160000  0.26610000  1.0
  N  N1655  1  0.82170000  0.27670000  0.26970000  1.0
  N  N1656  1  0.56500000  0.05580000  0.97820000  1.0
  N  N1657  1  0.60940000  0.07030000  0.97320000  1.0
  N  N1658  1  0.56000000  0.14950000  0.09590000  1.0
  N  N1659  1  0.52720000  0.16290000  0.07350000  1.0
  N  N1660  1  0.56590000  0.23740000  0.19190000  1.0
  N  N1661  1  0.59510000  0.20680000  0.18490000  1.0
  N  N1662  1  0.71540000  0.27860000  0.28440000  1.0
  N  N1663  1  0.68900000  0.25740000  0.30790000  1.0
  N  N1664  1  0.75070000  0.32270000  0.38040000  1.0
  N  N1665  1  0.73330000  0.32370000  0.34790000  1.0
  N  N1666  1  0.00160000  0.44480000  0.34510000  1.0
  N  N1667  1  0.99150000  0.42140000  0.31770000  1.0
  N  N1668  1  0.90610000  0.25510000  0.13240000  1.0
  N  N1669  1  0.95060000  0.25990000  0.15130000  1.0
  N  N1670  1  0.58600000  0.40900000  0.41790000  1.0
  N  N1671  1  0.57290000  0.37940000  0.43770000  1.0
  O  O1672  1  0.70760000  0.62200000  0.30010000  1.0
  O  O1673  1  0.69680000  0.55680000  0.33070000  1.0
  O  O1674  1  0.79130000  0.60180000  0.33240000  1.0
  O  O1675  1  0.78630000  0.52970000  0.33500000  1.0
  O  O1676  1  0.85440000  0.52780000  0.38860000  1.0
  O  O1677  1  0.75510000  0.48490000  0.38770000  1.0
  O  O1678  1  0.67060000  0.52060000  0.38610000  1.0
  O  O1679  1  0.76060000  0.55830000  0.39050000  1.0
  O  O1680  1  0.85060000  0.59720000  0.38980000  1.0
  O  O1681  1  0.79330000  0.66250000  0.36400000  1.0
  O  O1682  1  0.70320000  0.62560000  0.36470000  1.0
  O  O1683  1  0.61320000  0.58710000  0.36070000  1.0
  O  O1684  1  0.62110000  0.64420000  0.32570000  1.0
  O  O1685  1  0.71790000  0.68850000  0.32810000  1.0
  O  O1686  1  0.71090000  0.75920000  0.33510000  1.0
  O  O1687  1  0.62770000  0.71580000  0.33650000  1.0
  O  O1688  1  0.56560000  0.64330000  0.38270000  1.0
  O  O1689  1  0.65760000  0.67880000  0.38490000  1.0
  O  O1690  1  0.74480000  0.71640000  0.38590000  1.0
  O  O1691  1  0.73000000  0.65510000  0.41940000  1.0
  O  O1692  1  0.64950000  0.62270000  0.41950000  1.0
  O  O1693  1  0.60910000  0.56050000  0.42800000  1.0
  O  O1694  1  0.82690000  0.65250000  0.43230000  1.0
  O  O1695  1  0.78470000  0.59070000  0.44510000  1.0
  O  O1696  1  0.70540000  0.55640000  0.44320000  1.0
  O  O1697  1  0.60040000  0.48910000  0.42310000  1.0
  O  O1698  1  0.69710000  0.48630000  0.44170000  1.0
  O  O1699  1  0.78660000  0.52460000  0.44200000  1.0
  O  O1700  1  0.87810000  0.56090000  0.44430000  1.0
  O  O1701  1  0.83330000  0.47030000  0.42890000  1.0
  O  O1702  1  0.77100000  0.46520000  0.48590000  1.0
  O  O1703  1  0.86790000  0.50630000  0.48390000  1.0
  O  O1704  1  0.85750000  0.61840000  0.48490000  1.0
  O  O1705  1  0.63700000  0.52240000  0.48040000  1.0
  O  O1706  1  0.55540000  0.61500000  0.44720000  1.0
  O  O1707  1  0.77790000  0.70730000  0.44940000  1.0
  O  O1708  1  0.65920000  0.75170000  0.39340000  1.0
  O  O1709  1  0.56320000  0.71080000  0.38750000  1.0
  O  O1710  1  0.48490000  0.74170000  0.41590000  1.0
  O  O1711  1  0.57560000  0.77180000  0.42500000  1.0
  O  O1712  1  0.70930000  0.75800000  0.44920000  1.0
  O  O1713  1  0.61840000  0.71960000  0.44980000  1.0
  O  O1714  1  0.52750000  0.68130000  0.44950000  1.0
  O  O1715  1  0.61290000  0.66230000  0.48250000  1.0
  O  O1716  1  0.69420000  0.69600000  0.48340000  1.0
  O  O1717  1  0.77810000  0.70690000  0.51800000  1.0
  O  O1718  1  0.55840000  0.61530000  0.51600000  1.0
  O  O1719  1  0.52010000  0.57550000  0.56750000  1.0
  O  O1720  1  0.64730000  0.62160000  0.54680000  1.0
  O  O1721  1  0.72500000  0.65650000  0.54840000  1.0
  O  O1722  1  0.84140000  0.71500000  0.57220000  1.0
  O  O1723  1  0.82360000  0.65260000  0.53790000  1.0
  O  O1724  1  0.60630000  0.56010000  0.53340000  1.0
  O  O1725  1  0.70410000  0.55660000  0.52120000  1.0
  O  O1726  1  0.78160000  0.59150000  0.52310000  1.0
  O  O1727  1  0.87400000  0.56200000  0.52570000  1.0
  O  O1728  1  0.78510000  0.52580000  0.52440000  1.0
  O  O1729  1  0.69570000  0.48400000  0.52080000  1.0
  O  O1730  1  0.83160000  0.47090000  0.54150000  1.0
  O  O1731  1  0.85030000  0.52770000  0.57960000  1.0
  O  O1732  1  0.74790000  0.48690000  0.57880000  1.0
  O  O1733  1  0.66450000  0.52020000  0.57740000  1.0
  O  O1734  1  0.75370000  0.55820000  0.57760000  1.0
  O  O1735  1  0.84660000  0.59610000  0.57990000  1.0
  O  O1736  1  0.78820000  0.66160000  0.60410000  1.0
  O  O1737  1  0.69680000  0.62490000  0.60200000  1.0
  O  O1738  1  0.61070000  0.58400000  0.60320000  1.0
  O  O1739  1  0.56370000  0.64020000  0.57890000  1.0
  O  O1740  1  0.65170000  0.67670000  0.58030000  1.0
  O  O1741  1  0.74000000  0.71730000  0.58310000  1.0
  O  O1742  1  0.70930000  0.75810000  0.51630000  1.0
  O  O1743  1  0.61940000  0.71840000  0.51430000  1.0
  O  O1744  1  0.52560000  0.68150000  0.51660000  1.0
  O  O1745  1  0.53450000  0.74120000  0.48290000  1.0
  O  O1746  1  0.63400000  0.78320000  0.48560000  1.0
  O  O1747  1  0.57510000  0.77040000  0.54250000  1.0
  O  O1748  1  0.55720000  0.71020000  0.57370000  1.0
  O  O1749  1  0.65640000  0.74940000  0.57800000  1.0
  O  O1750  1  0.61780000  0.71250000  0.63080000  1.0
  O  O1751  1  0.61080000  0.64220000  0.63830000  1.0
  O  O1752  1  0.71370000  0.68430000  0.64150000  1.0
  O  O1753  1  0.69950000  0.62130000  0.66800000  1.0
  O  O1754  1  0.68820000  0.55990000  0.63470000  1.0
  O  O1755  1  0.78660000  0.59710000  0.63510000  1.0
  O  O1756  1  0.77750000  0.52820000  0.63230000  1.0
  O  O1757  1  0.68140000  0.61050000  0.48140000  1.0
  O  O1758  1  0.72800000  0.62960000  0.48640000  1.0
  O  O1759  1  0.79240000  0.87800000  0.80010000  1.0
  O  O1760  1  0.80320000  0.94320000  0.83070000  1.0
  O  O1761  1  0.70870000  0.89820000  0.83240000  1.0
  O  O1762  1  0.71370000  0.97030000  0.83500000  1.0
  O  O1763  1  0.64560000  0.97220000  0.88860000  1.0
  O  O1764  1  0.74490000  0.01510000  0.88770000  1.0
  O  O1765  1  0.82940000  0.97940000  0.88610000  1.0
  O  O1766  1  0.73940000  0.94170000  0.89050000  1.0
  O  O1767  1  0.64940000  0.90280000  0.88980000  1.0
  O  O1768  1  0.70670000  0.83750000  0.86400000  1.0
  O  O1769  1  0.79680000  0.87440000  0.86470000  1.0
  O  O1770  1  0.88680000  0.91290000  0.86070000  1.0
  O  O1771  1  0.87890000  0.85580000  0.82570000  1.0
  O  O1772  1  0.78210000  0.81150000  0.82810000  1.0
  O  O1773  1  0.78910000  0.74080000  0.83510000  1.0
  O  O1774  1  0.87230000  0.78420000  0.83650000  1.0
  O  O1775  1  0.93440000  0.85670000  0.88270000  1.0
  O  O1776  1  0.84240000  0.82120000  0.88490000  1.0
  O  O1777  1  0.75520000  0.78360000  0.88590000  1.0
  O  O1778  1  0.77000000  0.84490000  0.91940000  1.0
  O  O1779  1  0.85050000  0.87730000  0.91950000  1.0
  O  O1780  1  0.89090000  0.93950000  0.92800000  1.0
  O  O1781  1  0.67310000  0.84750000  0.93230000  1.0
  O  O1782  1  0.71530000  0.90930000  0.94510000  1.0
  O  O1783  1  0.79460000  0.94360000  0.94320000  1.0
  O  O1784  1  0.89960000  0.01090000  0.92310000  1.0
  O  O1785  1  0.80290000  0.01370000  0.94170000  1.0
  O  O1786  1  0.71340000  0.97540000  0.94200000  1.0
  O  O1787  1  0.62190000  0.93910000  0.94430000  1.0
  O  O1788  1  0.66666667  0.02970000  0.92890000  1.0
  O  O1789  1  0.72900000  0.03480000  0.98590000  1.0
  O  O1790  1  0.63210000  0.99370000  0.98390000  1.0
  O  O1791  1  0.64250000  0.88160000  0.98490000  1.0
  O  O1792  1  0.86300000  0.97760000  0.98040000  1.0
  O  O1793  1  0.94460000  0.88500000  0.94720000  1.0
  O  O1794  1  0.72210000  0.79270000  0.94940000  1.0
  O  O1795  1  0.84080000  0.74830000  0.89340000  1.0
  O  O1796  1  0.93680000  0.78920000  0.88750000  1.0
  O  O1797  1  0.01510000  0.75830000  0.91590000  1.0
  O  O1798  1  0.92440000  0.72820000  0.92500000  1.0
  O  O1799  1  0.79070000  0.74200000  0.94920000  1.0
  O  O1800  1  0.88160000  0.78040000  0.94980000  1.0
  O  O1801  1  0.97250000  0.81870000  0.94950000  1.0
  O  O1802  1  0.88710000  0.83770000  0.98250000  1.0
  O  O1803  1  0.80580000  0.80400000  0.98340000  1.0
  O  O1804  1  0.72190000  0.79310000  0.01800000  1.0
  O  O1805  1  0.94160000  0.88470000  0.01600000  1.0
  O  O1806  1  0.97990000  0.92450000  0.06750000  1.0
  O  O1807  1  0.85270000  0.87840000  0.04680000  1.0
  O  O1808  1  0.77500000  0.84350000  0.04840000  1.0
  O  O1809  1  0.65860000  0.78500000  0.07220000  1.0
  O  O1810  1  0.67640000  0.84740000  0.03790000  1.0
  O  O1811  1  0.89370000  0.93990000  0.03340000  1.0
  O  O1812  1  0.79590000  0.94340000  0.02120000  1.0
  O  O1813  1  0.71840000  0.90850000  0.02310000  1.0
  O  O1814  1  0.62600000  0.93800000  0.02570000  1.0
  O  O1815  1  0.71490000  0.97420000  0.02440000  1.0
  O  O1816  1  0.80430000  0.01600000  0.02080000  1.0
  O  O1817  1  0.66840000  0.02910000  0.04150000  1.0
  O  O1818  1  0.64970000  0.97230000  0.07960000  1.0
  O  O1819  1  0.75210000  0.01310000  0.07880000  1.0
  O  O1820  1  0.83550000  0.97980000  0.07740000  1.0
  O  O1821  1  0.74630000  0.94180000  0.07760000  1.0
  O  O1822  1  0.65340000  0.90390000  0.07990000  1.0
  O  O1823  1  0.71180000  0.83840000  0.10410000  1.0
  O  O1824  1  0.80320000  0.87510000  0.10200000  1.0
  O  O1825  1  0.88930000  0.91600000  0.10320000  1.0
  O  O1826  1  0.93630000  0.85980000  0.07890000  1.0
  O  O1827  1  0.84830000  0.82330000  0.08030000  1.0
  O  O1828  1  0.76000000  0.78270000  0.08310000  1.0
  O  O1829  1  0.79070000  0.74190000  0.01630000  1.0
  O  O1830  1  0.88060000  0.78160000  0.01430000  1.0
  O  O1831  1  0.97440000  0.81850000  0.01660000  1.0
  O  O1832  1  0.96550000  0.75880000  0.98290000  1.0
  O  O1833  1  0.86600000  0.71680000  0.98560000  1.0
  O  O1834  1  0.92490000  0.72960000  0.04250000  1.0
  O  O1835  1  0.94280000  0.78980000  0.07370000  1.0
  O  O1836  1  0.84360000  0.75060000  0.07800000  1.0
  O  O1837  1  0.88220000  0.78750000  0.13080000  1.0
  O  O1838  1  0.88920000  0.85780000  0.13830000  1.0
  O  O1839  1  0.78630000  0.81570000  0.14150000  1.0
  O  O1840  1  0.80050000  0.87870000  0.16800000  1.0
  O  O1841  1  0.81180000  0.94010000  0.13470000  1.0
  O  O1842  1  0.71340000  0.90290000  0.13510000  1.0
  O  O1843  1  0.72250000  0.97180000  0.13230000  1.0
  O  O1844  1  0.81860000  0.88950000  0.98140000  1.0
  O  O1845  1  0.77200000  0.87040000  0.98640000  1.0
  O  O1846  1  0.29240000  0.62200000  0.19990000  1.0
  O  O1847  1  0.30320000  0.55680000  0.16930000  1.0
  O  O1848  1  0.20870000  0.60180000  0.16760000  1.0
  O  O1849  1  0.21370000  0.52970000  0.16500000  1.0
  O  O1850  1  0.14560000  0.52780000  0.11140000  1.0
  O  O1851  1  0.24490000  0.48490000  0.11230000  1.0
  O  O1852  1  0.32940000  0.52060000  0.11390000  1.0
  O  O1853  1  0.23940000  0.55830000  0.10950000  1.0
  O  O1854  1  0.14940000  0.59720000  0.11020000  1.0
  O  O1855  1  0.20670000  0.66250000  0.13600000  1.0
  O  O1856  1  0.29680000  0.62560000  0.13530000  1.0
  O  O1857  1  0.38680000  0.58710000  0.13930000  1.0
  O  O1858  1  0.37890000  0.64420000  0.17430000  1.0
  O  O1859  1  0.28210000  0.68850000  0.17190000  1.0
  O  O1860  1  0.28910000  0.75920000  0.16490000  1.0
  O  O1861  1  0.37230000  0.71580000  0.16350000  1.0
  O  O1862  1  0.43440000  0.64330000  0.11730000  1.0
  O  O1863  1  0.34240000  0.67880000  0.11510000  1.0
  O  O1864  1  0.25520000  0.71640000  0.11410000  1.0
  O  O1865  1  0.27000000  0.65510000  0.08060000  1.0
  O  O1866  1  0.35050000  0.62270000  0.08050000  1.0
  O  O1867  1  0.39090000  0.56050000  0.07200000  1.0
  O  O1868  1  0.17310000  0.65250000  0.06770000  1.0
  O  O1869  1  0.21530000  0.59070000  0.05490000  1.0
  O  O1870  1  0.29460000  0.55640000  0.05680000  1.0
  O  O1871  1  0.39960000  0.48910000  0.07690000  1.0
  O  O1872  1  0.30290000  0.48630000  0.05830000  1.0
  O  O1873  1  0.21340000  0.52460000  0.05800000  1.0
  O  O1874  1  0.12190000  0.56090000  0.05570000  1.0
  O  O1875  1  0.16670000  0.47030000  0.07110000  1.0
  O  O1876  1  0.22900000  0.46520000  0.01410000  1.0
  O  O1877  1  0.13210000  0.50630000  0.01610000  1.0
  O  O1878  1  0.14250000  0.61840000  0.01510000  1.0
  O  O1879  1  0.36300000  0.52240000  0.01960000  1.0
  O  O1880  1  0.44460000  0.61500000  0.05280000  1.0
  O  O1881  1  0.22210000  0.70730000  0.05060000  1.0
  O  O1882  1  0.34080000  0.75170000  0.10660000  1.0
  O  O1883  1  0.43680000  0.71080000  0.11250000  1.0
  O  O1884  1  0.51510000  0.74170000  0.08410000  1.0
  O  O1885  1  0.42440000  0.77180000  0.07500000  1.0
  O  O1886  1  0.29070000  0.75800000  0.05080000  1.0
  O  O1887  1  0.38160000  0.71960000  0.05020000  1.0
  O  O1888  1  0.47250000  0.68130000  0.05050000  1.0
  O  O1889  1  0.38710000  0.66230000  0.01750000  1.0
  O  O1890  1  0.30580000  0.69600000  0.01660000  1.0
  O  O1891  1  0.22190000  0.70690000  0.98200000  1.0
  O  O1892  1  0.44160000  0.61530000  0.98400000  1.0
  O  O1893  1  0.47990000  0.57550000  0.93250000  1.0
  O  O1894  1  0.35270000  0.62160000  0.95320000  1.0
  O  O1895  1  0.27500000  0.65650000  0.95160000  1.0
  O  O1896  1  0.15860000  0.71500000  0.92780000  1.0
  O  O1897  1  0.17640000  0.65260000  0.96210000  1.0
  O  O1898  1  0.39370000  0.56010000  0.96660000  1.0
  O  O1899  1  0.29590000  0.55660000  0.97880000  1.0
  O  O1900  1  0.21840000  0.59150000  0.97690000  1.0
  O  O1901  1  0.12600000  0.56200000  0.97430000  1.0
  O  O1902  1  0.21490000  0.52580000  0.97560000  1.0
  O  O1903  1  0.30430000  0.48400000  0.97920000  1.0
  O  O1904  1  0.16840000  0.47090000  0.95850000  1.0
  O  O1905  1  0.14970000  0.52770000  0.92040000  1.0
  O  O1906  1  0.25210000  0.48690000  0.92120000  1.0
  O  O1907  1  0.33550000  0.52020000  0.92260000  1.0
  O  O1908  1  0.24630000  0.55820000  0.92240000  1.0
  O  O1909  1  0.15340000  0.59610000  0.92010000  1.0
  O  O1910  1  0.21180000  0.66160000  0.89590000  1.0
  O  O1911  1  0.30320000  0.62490000  0.89800000  1.0
  O  O1912  1  0.38930000  0.58400000  0.89680000  1.0
  O  O1913  1  0.43630000  0.64020000  0.92110000  1.0
  O  O1914  1  0.34830000  0.67670000  0.91970000  1.0
  O  O1915  1  0.26000000  0.71730000  0.91690000  1.0
  O  O1916  1  0.29070000  0.75810000  0.98370000  1.0
  O  O1917  1  0.38060000  0.71840000  0.98570000  1.0
  O  O1918  1  0.47440000  0.68150000  0.98340000  1.0
  O  O1919  1  0.46550000  0.74120000  0.01710000  1.0
  O  O1920  1  0.36600000  0.78320000  0.01440000  1.0
  O  O1921  1  0.42490000  0.77040000  0.95750000  1.0
  O  O1922  1  0.44280000  0.71020000  0.92630000  1.0
  O  O1923  1  0.34360000  0.74940000  0.92200000  1.0
  O  O1924  1  0.38220000  0.71250000  0.86920000  1.0
  O  O1925  1  0.38920000  0.64220000  0.86170000  1.0
  O  O1926  1  0.28630000  0.68430000  0.85850000  1.0
  O  O1927  1  0.30050000  0.62130000  0.83200000  1.0
  O  O1928  1  0.31180000  0.55990000  0.86530000  1.0
  O  O1929  1  0.21340000  0.59710000  0.86490000  1.0
  O  O1930  1  0.22250000  0.52820000  0.86770000  1.0
  O  O1931  1  0.31860000  0.61050000  0.01860000  1.0
  O  O1932  1  0.27200000  0.62960000  0.01360000  1.0
  O  O1933  1  0.20760000  0.87800000  0.69990000  1.0
  O  O1934  1  0.19680000  0.94320000  0.66930000  1.0
  O  O1935  1  0.29130000  0.89820000  0.66760000  1.0
  O  O1936  1  0.28630000  0.97030000  0.66500000  1.0
  O  O1937  1  0.35440000  0.97220000  0.61140000  1.0
  O  O1938  1  0.25510000  0.01510000  0.61230000  1.0
  O  O1939  1  0.17060000  0.97940000  0.61390000  1.0
  O  O1940  1  0.26060000  0.94170000  0.60950000  1.0
  O  O1941  1  0.35060000  0.90280000  0.61020000  1.0
  O  O1942  1  0.29330000  0.83750000  0.63600000  1.0
  O  O1943  1  0.20320000  0.87440000  0.63530000  1.0
  O  O1944  1  0.11320000  0.91290000  0.63930000  1.0
  O  O1945  1  0.12110000  0.85580000  0.67430000  1.0
  O  O1946  1  0.21790000  0.81150000  0.67190000  1.0
  O  O1947  1  0.21090000  0.74080000  0.66490000  1.0
  O  O1948  1  0.12770000  0.78420000  0.66350000  1.0
  O  O1949  1  0.06560000  0.85670000  0.61730000  1.0
  O  O1950  1  0.15760000  0.82120000  0.61510000  1.0
  O  O1951  1  0.24480000  0.78360000  0.61410000  1.0
  O  O1952  1  0.23000000  0.84490000  0.58060000  1.0
  O  O1953  1  0.14950000  0.87730000  0.58050000  1.0
  O  O1954  1  0.10910000  0.93950000  0.57200000  1.0
  O  O1955  1  0.32690000  0.84750000  0.56770000  1.0
  O  O1956  1  0.28470000  0.90930000  0.55490000  1.0
  O  O1957  1  0.20540000  0.94360000  0.55680000  1.0
  O  O1958  1  0.10040000  0.01090000  0.57690000  1.0
  O  O1959  1  0.19710000  0.01370000  0.55830000  1.0
  O  O1960  1  0.28660000  0.97540000  0.55800000  1.0
  O  O1961  1  0.37810000  0.93910000  0.55570000  1.0
  O  O1962  1  0.33333333  0.02970000  0.57110000  1.0
  O  O1963  1  0.27100000  0.03480000  0.51410000  1.0
  O  O1964  1  0.36790000  0.99370000  0.51610000  1.0
  O  O1965  1  0.35750000  0.88160000  0.51510000  1.0
  O  O1966  1  0.13700000  0.97760000  0.51960000  1.0
  O  O1967  1  0.05540000  0.88500000  0.55280000  1.0
  O  O1968  1  0.27790000  0.79270000  0.55060000  1.0
  O  O1969  1  0.15920000  0.74830000  0.60660000  1.0
  O  O1970  1  0.06320000  0.78920000  0.61250000  1.0
  O  O1971  1  0.98490000  0.75830000  0.58410000  1.0
  O  O1972  1  0.07560000  0.72820000  0.57500000  1.0
  O  O1973  1  0.20930000  0.74200000  0.55080000  1.0
  O  O1974  1  0.11840000  0.78040000  0.55020000  1.0
  O  O1975  1  0.02750000  0.81870000  0.55050000  1.0
  O  O1976  1  0.11290000  0.83770000  0.51750000  1.0
  O  O1977  1  0.19420000  0.80400000  0.51660000  1.0
  O  O1978  1  0.27810000  0.79310000  0.48200000  1.0
  O  O1979  1  0.05840000  0.88470000  0.48400000  1.0
  O  O1980  1  0.02010000  0.92450000  0.43250000  1.0
  O  O1981  1  0.14730000  0.87840000  0.45320000  1.0
  O  O1982  1  0.22500000  0.84350000  0.45160000  1.0
  O  O1983  1  0.34140000  0.78500000  0.42780000  1.0
  O  O1984  1  0.32360000  0.84740000  0.46210000  1.0
  O  O1985  1  0.10630000  0.93990000  0.46660000  1.0
  O  O1986  1  0.20410000  0.94340000  0.47880000  1.0
  O  O1987  1  0.28160000  0.90850000  0.47690000  1.0
  O  O1988  1  0.37400000  0.93800000  0.47430000  1.0
  O  O1989  1  0.28510000  0.97420000  0.47560000  1.0
  O  O1990  1  0.19570000  0.01600000  0.47920000  1.0
  O  O1991  1  0.33160000  0.02910000  0.45850000  1.0
  O  O1992  1  0.35030000  0.97230000  0.42040000  1.0
  O  O1993  1  0.24790000  0.01310000  0.42120000  1.0
  O  O1994  1  0.16450000  0.97980000  0.42260000  1.0
  O  O1995  1  0.25370000  0.94180000  0.42240000  1.0
  O  O1996  1  0.34660000  0.90390000  0.42010000  1.0
  O  O1997  1  0.28820000  0.83840000  0.39590000  1.0
  O  O1998  1  0.19680000  0.87510000  0.39800000  1.0
  O  O1999  1  0.11070000  0.91600000  0.39680000  1.0
  O  O2000  1  0.06370000  0.85980000  0.42110000  1.0
  O  O2001  1  0.15170000  0.82330000  0.41970000  1.0
  O  O2002  1  0.24000000  0.78270000  0.41690000  1.0
  O  O2003  1  0.20930000  0.74190000  0.48370000  1.0
  O  O2004  1  0.11940000  0.78160000  0.48570000  1.0
  O  O2005  1  0.02560000  0.81850000  0.48340000  1.0
  O  O2006  1  0.03450000  0.75880000  0.51710000  1.0
  O  O2007  1  0.13400000  0.71680000  0.51440000  1.0
  O  O2008  1  0.07510000  0.72960000  0.45750000  1.0
  O  O2009  1  0.05720000  0.78980000  0.42630000  1.0
  O  O2010  1  0.15640000  0.75060000  0.42200000  1.0
  O  O2011  1  0.11780000  0.78750000  0.36920000  1.0
  O  O2012  1  0.11080000  0.85780000  0.36170000  1.0
  O  O2013  1  0.21370000  0.81570000  0.35850000  1.0
  O  O2014  1  0.19950000  0.87870000  0.33200000  1.0
  O  O2015  1  0.18820000  0.94010000  0.36530000  1.0
  O  O2016  1  0.28660000  0.90290000  0.36490000  1.0
  O  O2017  1  0.27750000  0.97180000  0.36770000  1.0
  O  O2018  1  0.18140000  0.88950000  0.51860000  1.0
  O  O2019  1  0.22800000  0.87040000  0.51360000  1.0
  O  O2020  1  0.29240000  0.37800000  0.69990000  1.0
  O  O2021  1  0.30320000  0.44320000  0.66930000  1.0
  O  O2022  1  0.20870000  0.39820000  0.66760000  1.0
  O  O2023  1  0.21370000  0.47030000  0.66500000  1.0
  O  O2024  1  0.14560000  0.47220000  0.61140000  1.0
  O  O2025  1  0.24490000  0.51510000  0.61230000  1.0
  O  O2026  1  0.32940000  0.47940000  0.61390000  1.0
  O  O2027  1  0.23940000  0.44170000  0.60950000  1.0
  O  O2028  1  0.14940000  0.40280000  0.61020000  1.0
  O  O2029  1  0.20670000  0.33750000  0.63600000  1.0
  O  O2030  1  0.29680000  0.37440000  0.63530000  1.0
  O  O2031  1  0.38680000  0.41290000  0.63930000  1.0
  O  O2032  1  0.37890000  0.35580000  0.67430000  1.0
  O  O2033  1  0.28210000  0.31150000  0.67190000  1.0
  O  O2034  1  0.28910000  0.24080000  0.66490000  1.0
  O  O2035  1  0.37230000  0.28420000  0.66350000  1.0
  O  O2036  1  0.43440000  0.35670000  0.61730000  1.0
  O  O2037  1  0.34240000  0.32120000  0.61510000  1.0
  O  O2038  1  0.25520000  0.28360000  0.61410000  1.0
  O  O2039  1  0.27000000  0.34490000  0.58060000  1.0
  O  O2040  1  0.35050000  0.37730000  0.58050000  1.0
  O  O2041  1  0.39090000  0.43950000  0.57200000  1.0
  O  O2042  1  0.17310000  0.34750000  0.56770000  1.0
  O  O2043  1  0.21530000  0.40930000  0.55490000  1.0
  O  O2044  1  0.29460000  0.44360000  0.55680000  1.0
  O  O2045  1  0.39960000  0.51090000  0.57690000  1.0
  O  O2046  1  0.30290000  0.51370000  0.55830000  1.0
  O  O2047  1  0.21340000  0.47540000  0.55800000  1.0
  O  O2048  1  0.12190000  0.43910000  0.55570000  1.0
  O  O2049  1  0.16670000  0.52970000  0.57110000  1.0
  O  O2050  1  0.22900000  0.53480000  0.51410000  1.0
  O  O2051  1  0.13210000  0.49370000  0.51610000  1.0
  O  O2052  1  0.14250000  0.38160000  0.51510000  1.0
  O  O2053  1  0.36300000  0.47760000  0.51960000  1.0
  O  O2054  1  0.44460000  0.38500000  0.55280000  1.0
  O  O2055  1  0.22210000  0.29270000  0.55060000  1.0
  O  O2056  1  0.34080000  0.24830000  0.60660000  1.0
  O  O2057  1  0.43680000  0.28920000  0.61250000  1.0
  O  O2058  1  0.51510000  0.25830000  0.58410000  1.0
  O  O2059  1  0.42440000  0.22820000  0.57500000  1.0
  O  O2060  1  0.29070000  0.24200000  0.55080000  1.0
  O  O2061  1  0.38160000  0.28040000  0.55020000  1.0
  O  O2062  1  0.47250000  0.31870000  0.55050000  1.0
  O  O2063  1  0.38710000  0.33770000  0.51750000  1.0
  O  O2064  1  0.30580000  0.30400000  0.51660000  1.0
  O  O2065  1  0.22190000  0.29310000  0.48200000  1.0
  O  O2066  1  0.44160000  0.38470000  0.48400000  1.0
  O  O2067  1  0.47990000  0.42450000  0.43250000  1.0
  O  O2068  1  0.35270000  0.37840000  0.45320000  1.0
  O  O2069  1  0.27500000  0.34350000  0.45160000  1.0
  O  O2070  1  0.15860000  0.28500000  0.42780000  1.0
  O  O2071  1  0.17640000  0.34740000  0.46210000  1.0
  O  O2072  1  0.39370000  0.43990000  0.46660000  1.0
  O  O2073  1  0.29590000  0.44340000  0.47880000  1.0
  O  O2074  1  0.21840000  0.40850000  0.47690000  1.0
  O  O2075  1  0.12600000  0.43800000  0.47430000  1.0
  O  O2076  1  0.21490000  0.47420000  0.47560000  1.0
  O  O2077  1  0.30430000  0.51600000  0.47920000  1.0
  O  O2078  1  0.16840000  0.52910000  0.45850000  1.0
  O  O2079  1  0.14970000  0.47230000  0.42040000  1.0
  O  O2080  1  0.25210000  0.51310000  0.42120000  1.0
  O  O2081  1  0.33550000  0.47980000  0.42260000  1.0
  O  O2082  1  0.24630000  0.44180000  0.42240000  1.0
  O  O2083  1  0.15340000  0.40390000  0.42010000  1.0
  O  O2084  1  0.21180000  0.33840000  0.39590000  1.0
  O  O2085  1  0.30320000  0.37510000  0.39800000  1.0
  O  O2086  1  0.38930000  0.41600000  0.39680000  1.0
  O  O2087  1  0.43630000  0.35980000  0.42110000  1.0
  O  O2088  1  0.34830000  0.32330000  0.41970000  1.0
  O  O2089  1  0.26000000  0.28270000  0.41690000  1.0
  O  O2090  1  0.29070000  0.24190000  0.48370000  1.0
  O  O2091  1  0.38060000  0.28160000  0.48570000  1.0
  O  O2092  1  0.47440000  0.31850000  0.48340000  1.0
  O  O2093  1  0.46550000  0.25880000  0.51710000  1.0
  O  O2094  1  0.36600000  0.21680000  0.51440000  1.0
  O  O2095  1  0.42490000  0.22960000  0.45750000  1.0
  O  O2096  1  0.44280000  0.28980000  0.42630000  1.0
  O  O2097  1  0.34360000  0.25060000  0.42200000  1.0
  O  O2098  1  0.38220000  0.28750000  0.36920000  1.0
  O  O2099  1  0.38920000  0.35780000  0.36170000  1.0
  O  O2100  1  0.28630000  0.31570000  0.35850000  1.0
  O  O2101  1  0.30050000  0.37870000  0.33200000  1.0
  O  O2102  1  0.31180000  0.44010000  0.36530000  1.0
  O  O2103  1  0.21340000  0.40290000  0.36490000  1.0
  O  O2104  1  0.22250000  0.47180000  0.36770000  1.0
  O  O2105  1  0.31860000  0.38950000  0.51860000  1.0
  O  O2106  1  0.27200000  0.37040000  0.51360000  1.0
  O  O2107  1  0.20760000  0.12200000  0.19990000  1.0
  O  O2108  1  0.19680000  0.05680000  0.16930000  1.0
  O  O2109  1  0.29130000  0.10180000  0.16760000  1.0
  O  O2110  1  0.28630000  0.02970000  0.16500000  1.0
  O  O2111  1  0.35440000  0.02780000  0.11140000  1.0
  O  O2112  1  0.25510000  0.98490000  0.11230000  1.0
  O  O2113  1  0.17060000  0.02060000  0.11390000  1.0
  O  O2114  1  0.26060000  0.05830000  0.10950000  1.0
  O  O2115  1  0.35060000  0.09720000  0.11020000  1.0
  O  O2116  1  0.29330000  0.16250000  0.13600000  1.0
  O  O2117  1  0.20320000  0.12560000  0.13530000  1.0
  O  O2118  1  0.11320000  0.08710000  0.13930000  1.0
  O  O2119  1  0.12110000  0.14420000  0.17430000  1.0
  O  O2120  1  0.21790000  0.18850000  0.17190000  1.0
  O  O2121  1  0.21090000  0.25920000  0.16490000  1.0
  O  O2122  1  0.12770000  0.21580000  0.16350000  1.0
  O  O2123  1  0.06560000  0.14330000  0.11730000  1.0
  O  O2124  1  0.15760000  0.17880000  0.11510000  1.0
  O  O2125  1  0.24480000  0.21640000  0.11410000  1.0
  O  O2126  1  0.23000000  0.15510000  0.08060000  1.0
  O  O2127  1  0.14950000  0.12270000  0.08050000  1.0
  O  O2128  1  0.10910000  0.06050000  0.07200000  1.0
  O  O2129  1  0.32690000  0.15250000  0.06770000  1.0
  O  O2130  1  0.28470000  0.09070000  0.05490000  1.0
  O  O2131  1  0.20540000  0.05640000  0.05680000  1.0
  O  O2132  1  0.10040000  0.98910000  0.07690000  1.0
  O  O2133  1  0.19710000  0.98630000  0.05830000  1.0
  O  O2134  1  0.28660000  0.02460000  0.05800000  1.0
  O  O2135  1  0.37810000  0.06090000  0.05570000  1.0
  O  O2136  1  0.33333333  0.97030000  0.07110000  1.0
  O  O2137  1  0.27100000  0.96520000  0.01410000  1.0
  O  O2138  1  0.36790000  0.00630000  0.01610000  1.0
  O  O2139  1  0.35750000  0.11840000  0.01510000  1.0
  O  O2140  1  0.13700000  0.02240000  0.01960000  1.0
  O  O2141  1  0.05540000  0.11500000  0.05280000  1.0
  O  O2142  1  0.27790000  0.20730000  0.05060000  1.0
  O  O2143  1  0.15920000  0.25170000  0.10660000  1.0
  O  O2144  1  0.06320000  0.21080000  0.11250000  1.0
  O  O2145  1  0.98490000  0.24170000  0.08410000  1.0
  O  O2146  1  0.07560000  0.27180000  0.07500000  1.0
  O  O2147  1  0.20930000  0.25800000  0.05080000  1.0
  O  O2148  1  0.11840000  0.21960000  0.05020000  1.0
  O  O2149  1  0.02750000  0.18130000  0.05050000  1.0
  O  O2150  1  0.11290000  0.16230000  0.01750000  1.0
  O  O2151  1  0.19420000  0.19600000  0.01660000  1.0
  O  O2152  1  0.27810000  0.20690000  0.98200000  1.0
  O  O2153  1  0.05840000  0.11530000  0.98400000  1.0
  O  O2154  1  0.02010000  0.07550000  0.93250000  1.0
  O  O2155  1  0.14730000  0.12160000  0.95320000  1.0
  O  O2156  1  0.22500000  0.15650000  0.95160000  1.0
  O  O2157  1  0.34140000  0.21500000  0.92780000  1.0
  O  O2158  1  0.32360000  0.15260000  0.96210000  1.0
  O  O2159  1  0.10630000  0.06010000  0.96660000  1.0
  O  O2160  1  0.20410000  0.05660000  0.97880000  1.0
  O  O2161  1  0.28160000  0.09150000  0.97690000  1.0
  O  O2162  1  0.37400000  0.06200000  0.97430000  1.0
  O  O2163  1  0.28510000  0.02580000  0.97560000  1.0
  O  O2164  1  0.19570000  0.98400000  0.97920000  1.0
  O  O2165  1  0.33160000  0.97090000  0.95850000  1.0
  O  O2166  1  0.35030000  0.02770000  0.92040000  1.0
  O  O2167  1  0.24790000  0.98690000  0.92120000  1.0
  O  O2168  1  0.16450000  0.02020000  0.92260000  1.0
  O  O2169  1  0.25370000  0.05820000  0.92240000  1.0
  O  O2170  1  0.34660000  0.09610000  0.92010000  1.0
  O  O2171  1  0.28820000  0.16160000  0.89590000  1.0
  O  O2172  1  0.19680000  0.12490000  0.89800000  1.0
  O  O2173  1  0.11070000  0.08400000  0.89680000  1.0
  O  O2174  1  0.06370000  0.14020000  0.92110000  1.0
  O  O2175  1  0.15170000  0.17670000  0.91970000  1.0
  O  O2176  1  0.24000000  0.21730000  0.91690000  1.0
  O  O2177  1  0.20930000  0.25810000  0.98370000  1.0
  O  O2178  1  0.11940000  0.21840000  0.98570000  1.0
  O  O2179  1  0.02560000  0.18150000  0.98340000  1.0
  O  O2180  1  0.03450000  0.24120000  0.01710000  1.0
  O  O2181  1  0.13400000  0.28320000  0.01440000  1.0
  O  O2182  1  0.07510000  0.27040000  0.95750000  1.0
  O  O2183  1  0.05720000  0.21020000  0.92630000  1.0
  O  O2184  1  0.15640000  0.24940000  0.92200000  1.0
  O  O2185  1  0.11780000  0.21250000  0.86920000  1.0
  O  O2186  1  0.11080000  0.14220000  0.86170000  1.0
  O  O2187  1  0.21370000  0.18430000  0.85850000  1.0
  O  O2188  1  0.19950000  0.12130000  0.83200000  1.0
  O  O2189  1  0.18820000  0.05990000  0.86530000  1.0
  O  O2190  1  0.28660000  0.09710000  0.86490000  1.0
  O  O2191  1  0.27750000  0.02820000  0.86770000  1.0
  O  O2192  1  0.18140000  0.11050000  0.01860000  1.0
  O  O2193  1  0.22800000  0.12960000  0.01360000  1.0
  O  O2194  1  0.70760000  0.37800000  0.80010000  1.0
  O  O2195  1  0.69680000  0.44320000  0.83070000  1.0
  O  O2196  1  0.79130000  0.39820000  0.83240000  1.0
  O  O2197  1  0.78630000  0.47030000  0.83500000  1.0
  O  O2198  1  0.85440000  0.47220000  0.88860000  1.0
  O  O2199  1  0.75510000  0.51510000  0.88770000  1.0
  O  O2200  1  0.67060000  0.47940000  0.88610000  1.0
  O  O2201  1  0.76060000  0.44170000  0.89050000  1.0
  O  O2202  1  0.85060000  0.40280000  0.88980000  1.0
  O  O2203  1  0.79330000  0.33750000  0.86400000  1.0
  O  O2204  1  0.70320000  0.37440000  0.86470000  1.0
  O  O2205  1  0.61320000  0.41290000  0.86070000  1.0
  O  O2206  1  0.62110000  0.35580000  0.82570000  1.0
  O  O2207  1  0.71790000  0.31150000  0.82810000  1.0
  O  O2208  1  0.71090000  0.24080000  0.83510000  1.0
  O  O2209  1  0.62770000  0.28420000  0.83650000  1.0
  O  O2210  1  0.56560000  0.35670000  0.88270000  1.0
  O  O2211  1  0.65760000  0.32120000  0.88490000  1.0
  O  O2212  1  0.74480000  0.28360000  0.88590000  1.0
  O  O2213  1  0.73000000  0.34490000  0.91940000  1.0
  O  O2214  1  0.64950000  0.37730000  0.91950000  1.0
  O  O2215  1  0.60910000  0.43950000  0.92800000  1.0
  O  O2216  1  0.82690000  0.34750000  0.93230000  1.0
  O  O2217  1  0.78470000  0.40930000  0.94510000  1.0
  O  O2218  1  0.70540000  0.44360000  0.94320000  1.0
  O  O2219  1  0.60040000  0.51090000  0.92310000  1.0
  O  O2220  1  0.69710000  0.51370000  0.94170000  1.0
  O  O2221  1  0.78660000  0.47540000  0.94200000  1.0
  O  O2222  1  0.87810000  0.43910000  0.94430000  1.0
  O  O2223  1  0.83330000  0.52970000  0.92890000  1.0
  O  O2224  1  0.77100000  0.53480000  0.98590000  1.0
  O  O2225  1  0.86790000  0.49370000  0.98390000  1.0
  O  O2226  1  0.85750000  0.38160000  0.98490000  1.0
  O  O2227  1  0.63700000  0.47760000  0.98040000  1.0
  O  O2228  1  0.55540000  0.38500000  0.94720000  1.0
  O  O2229  1  0.77790000  0.29270000  0.94940000  1.0
  O  O2230  1  0.65920000  0.24830000  0.89340000  1.0
  O  O2231  1  0.56320000  0.28920000  0.88750000  1.0
  O  O2232  1  0.48490000  0.25830000  0.91590000  1.0
  O  O2233  1  0.57560000  0.22820000  0.92500000  1.0
  O  O2234  1  0.70930000  0.24200000  0.94920000  1.0
  O  O2235  1  0.61840000  0.28040000  0.94980000  1.0
  O  O2236  1  0.52750000  0.31870000  0.94950000  1.0
  O  O2237  1  0.61290000  0.33770000  0.98250000  1.0
  O  O2238  1  0.69420000  0.30400000  0.98340000  1.0
  O  O2239  1  0.77810000  0.29310000  0.01800000  1.0
  O  O2240  1  0.55840000  0.38470000  0.01600000  1.0
  O  O2241  1  0.52010000  0.42450000  0.06750000  1.0
  O  O2242  1  0.64730000  0.37840000  0.04680000  1.0
  O  O2243  1  0.72500000  0.34350000  0.04840000  1.0
  O  O2244  1  0.84140000  0.28500000  0.07220000  1.0
  O  O2245  1  0.82360000  0.34740000  0.03790000  1.0
  O  O2246  1  0.60630000  0.43990000  0.03340000  1.0
  O  O2247  1  0.70410000  0.44340000  0.02120000  1.0
  O  O2248  1  0.78160000  0.40850000  0.02310000  1.0
  O  O2249  1  0.87400000  0.43800000  0.02570000  1.0
  O  O2250  1  0.78510000  0.47420000  0.02440000  1.0
  O  O2251  1  0.69570000  0.51600000  0.02080000  1.0
  O  O2252  1  0.83160000  0.52910000  0.04150000  1.0
  O  O2253  1  0.85030000  0.47230000  0.07960000  1.0
  O  O2254  1  0.74790000  0.51310000  0.07880000  1.0
  O  O2255  1  0.66450000  0.47980000  0.07740000  1.0
  O  O2256  1  0.75370000  0.44180000  0.07760000  1.0
  O  O2257  1  0.84660000  0.40390000  0.07990000  1.0
  O  O2258  1  0.78820000  0.33840000  0.10410000  1.0
  O  O2259  1  0.69680000  0.37510000  0.10200000  1.0
  O  O2260  1  0.61070000  0.41600000  0.10320000  1.0
  O  O2261  1  0.56370000  0.35980000  0.07890000  1.0
  O  O2262  1  0.65170000  0.32330000  0.08030000  1.0
  O  O2263  1  0.74000000  0.28270000  0.08310000  1.0
  O  O2264  1  0.70930000  0.24190000  0.01630000  1.0
  O  O2265  1  0.61940000  0.28160000  0.01430000  1.0
  O  O2266  1  0.52560000  0.31850000  0.01660000  1.0
  O  O2267  1  0.53450000  0.25880000  0.98290000  1.0
  O  O2268  1  0.63400000  0.21680000  0.98560000  1.0
  O  O2269  1  0.57510000  0.22960000  0.04250000  1.0
  O  O2270  1  0.55720000  0.28980000  0.07370000  1.0
  O  O2271  1  0.65640000  0.25060000  0.07800000  1.0
  O  O2272  1  0.61780000  0.28750000  0.13080000  1.0
  O  O2273  1  0.61080000  0.35780000  0.13830000  1.0
  O  O2274  1  0.71370000  0.31570000  0.14150000  1.0
  O  O2275  1  0.69950000  0.37870000  0.16800000  1.0
  O  O2276  1  0.68820000  0.44010000  0.13470000  1.0
  O  O2277  1  0.78660000  0.40290000  0.13510000  1.0
  O  O2278  1  0.77750000  0.47180000  0.13230000  1.0
  O  O2279  1  0.68140000  0.38950000  0.98140000  1.0
  O  O2280  1  0.72800000  0.37040000  0.98640000  1.0
  O  O2281  1  0.79240000  0.12200000  0.30010000  1.0
  O  O2282  1  0.80320000  0.05680000  0.33070000  1.0
  O  O2283  1  0.70870000  0.10180000  0.33240000  1.0
  O  O2284  1  0.71370000  0.02970000  0.33500000  1.0
  O  O2285  1  0.64560000  0.02780000  0.38860000  1.0
  O  O2286  1  0.74490000  0.98490000  0.38770000  1.0
  O  O2287  1  0.82940000  0.02060000  0.38610000  1.0
  O  O2288  1  0.73940000  0.05830000  0.39050000  1.0
  O  O2289  1  0.64940000  0.09720000  0.38980000  1.0
  O  O2290  1  0.70670000  0.16250000  0.36400000  1.0
  O  O2291  1  0.79680000  0.12560000  0.36470000  1.0
  O  O2292  1  0.88680000  0.08710000  0.36070000  1.0
  O  O2293  1  0.87890000  0.14420000  0.32570000  1.0
  O  O2294  1  0.78210000  0.18850000  0.32810000  1.0
  O  O2295  1  0.78910000  0.25920000  0.33510000  1.0
  O  O2296  1  0.87230000  0.21580000  0.33650000  1.0
  O  O2297  1  0.93440000  0.14330000  0.38270000  1.0
  O  O2298  1  0.84240000  0.17880000  0.38490000  1.0
  O  O2299  1  0.75520000  0.21640000  0.38590000  1.0
  O  O2300  1  0.77000000  0.15510000  0.41940000  1.0
  O  O2301  1  0.85050000  0.12270000  0.41950000  1.0
  O  O2302  1  0.89090000  0.06050000  0.42800000  1.0
  O  O2303  1  0.67310000  0.15250000  0.43230000  1.0
  O  O2304  1  0.71530000  0.09070000  0.44510000  1.0
  O  O2305  1  0.79460000  0.05640000  0.44320000  1.0
  O  O2306  1  0.89960000  0.98910000  0.42310000  1.0
  O  O2307  1  0.80290000  0.98630000  0.44170000  1.0
  O  O2308  1  0.71340000  0.02460000  0.44200000  1.0
  O  O2309  1  0.62190000  0.06090000  0.44430000  1.0
  O  O2310  1  0.66666667  0.97030000  0.42890000  1.0
  O  O2311  1  0.72900000  0.96520000  0.48590000  1.0
  O  O2312  1  0.63210000  0.00630000  0.48390000  1.0
  O  O2313  1  0.64250000  0.11840000  0.48490000  1.0
  O  O2314  1  0.86300000  0.02240000  0.48040000  1.0
  O  O2315  1  0.94460000  0.11500000  0.44720000  1.0
  O  O2316  1  0.72210000  0.20730000  0.44940000  1.0
  O  O2317  1  0.84080000  0.25170000  0.39340000  1.0
  O  O2318  1  0.93680000  0.21080000  0.38750000  1.0
  O  O2319  1  0.01510000  0.24170000  0.41590000  1.0
  O  O2320  1  0.92440000  0.27180000  0.42500000  1.0
  O  O2321  1  0.79070000  0.25800000  0.44920000  1.0
  O  O2322  1  0.88160000  0.21960000  0.44980000  1.0
  O  O2323  1  0.97250000  0.18130000  0.44950000  1.0
  O  O2324  1  0.88710000  0.16230000  0.48250000  1.0
  O  O2325  1  0.80580000  0.19600000  0.48340000  1.0
  O  O2326  1  0.72190000  0.20690000  0.51800000  1.0
  O  O2327  1  0.94160000  0.11530000  0.51600000  1.0
  O  O2328  1  0.97990000  0.07550000  0.56750000  1.0
  O  O2329  1  0.85270000  0.12160000  0.54680000  1.0
  O  O2330  1  0.77500000  0.15650000  0.54840000  1.0
  O  O2331  1  0.65860000  0.21500000  0.57220000  1.0
  O  O2332  1  0.67640000  0.15260000  0.53790000  1.0
  O  O2333  1  0.89370000  0.06010000  0.53340000  1.0
  O  O2334  1  0.79590000  0.05660000  0.52120000  1.0
  O  O2335  1  0.71840000  0.09150000  0.52310000  1.0
  O  O2336  1  0.62600000  0.06200000  0.52570000  1.0
  O  O2337  1  0.71490000  0.02580000  0.52440000  1.0
  O  O2338  1  0.80430000  0.98400000  0.52080000  1.0
  O  O2339  1  0.66840000  0.97090000  0.54150000  1.0
  O  O2340  1  0.64970000  0.02770000  0.57960000  1.0
  O  O2341  1  0.75210000  0.98690000  0.57880000  1.0
  O  O2342  1  0.83550000  0.02020000  0.57740000  1.0
  O  O2343  1  0.74630000  0.05820000  0.57760000  1.0
  O  O2344  1  0.65340000  0.09610000  0.57990000  1.0
  O  O2345  1  0.71180000  0.16160000  0.60410000  1.0
  O  O2346  1  0.80320000  0.12490000  0.60200000  1.0
  O  O2347  1  0.88930000  0.08400000  0.60320000  1.0
  O  O2348  1  0.93630000  0.14020000  0.57890000  1.0
  O  O2349  1  0.84830000  0.17670000  0.58030000  1.0
  O  O2350  1  0.76000000  0.21730000  0.58310000  1.0
  O  O2351  1  0.79070000  0.25810000  0.51630000  1.0
  O  O2352  1  0.88060000  0.21840000  0.51430000  1.0
  O  O2353  1  0.97440000  0.18150000  0.51660000  1.0
  O  O2354  1  0.96550000  0.24120000  0.48290000  1.0
  O  O2355  1  0.86600000  0.28320000  0.48560000  1.0
  O  O2356  1  0.92490000  0.27040000  0.54250000  1.0
  O  O2357  1  0.94280000  0.21020000  0.57370000  1.0
  O  O2358  1  0.84360000  0.24940000  0.57800000  1.0
  O  O2359  1  0.88220000  0.21250000  0.63080000  1.0
  O  O2360  1  0.88920000  0.14220000  0.63830000  1.0
  O  O2361  1  0.78630000  0.18430000  0.64150000  1.0
  O  O2362  1  0.80050000  0.12130000  0.66800000  1.0
  O  O2363  1  0.81180000  0.05990000  0.63470000  1.0
  O  O2364  1  0.71340000  0.09710000  0.63510000  1.0
  O  O2365  1  0.72250000  0.02820000  0.63230000  1.0
  O  O2366  1  0.81860000  0.11050000  0.48140000  1.0
  O  O2367  1  0.77200000  0.12960000  0.48640000  1.0
