# generated using pymatgen
data_Cd3H34C60(N5O6)2
_symmetry_space_group_name_H-M   'P 1'
_cell_length_a   13.59530000
_cell_length_b   17.01310000
_cell_length_c   51.88700000
_cell_angle_alpha   90.00000000
_cell_angle_beta   90.00000000
_cell_angle_gamma   90.00000000
_symmetry_Int_Tables_number   1
_chemical_formula_structural   Cd3H34C60(N5O6)2
_chemical_formula_sum   'Cd24 H272 C480 N80 O96'
_cell_volume   12001.36962194
_cell_formula_units_Z   8
loop_
 _symmetry_equiv_pos_site_id
 _symmetry_equiv_pos_as_xyz
  1  'x, y, z'
loop_
 _atom_site_type_symbol
 _atom_site_label
 _atom_site_symmetry_multiplicity
 _atom_site_fract_x
 _atom_site_fract_y
 _atom_site_fract_z
 _atom_site_occupancy
  Cd  Cd0  1  0.67863000  0.48028000  0.17145000  1.0
  Cd  Cd1  1  0.90476000  0.97597000  0.16677000  1.0
  Cd  Cd2  1  0.63976000  0.99715000  0.99128000  1.0
  Cd  Cd3  1  0.32137000  0.01972000  0.67145000  1.0
  Cd  Cd4  1  0.09524000  0.52403000  0.66677000  1.0
  Cd  Cd5  1  0.36024000  0.50285000  0.49128000  1.0
  Cd  Cd6  1  0.17863000  0.51972000  0.32855000  1.0
  Cd  Cd7  1  0.40476000  0.02403000  0.33323000  1.0
  Cd  Cd8  1  0.13976000  0.00285000  0.50872000  1.0
  Cd  Cd9  1  0.82137000  0.98028000  0.82855000  1.0
  Cd  Cd10  1  0.59524000  0.47597000  0.83323000  1.0
  Cd  Cd11  1  0.86024000  0.49715000  0.00872000  1.0
  Cd  Cd12  1  0.32137000  0.51972000  0.82855000  1.0
  Cd  Cd13  1  0.09524000  0.02403000  0.83323000  1.0
  Cd  Cd14  1  0.36024000  0.00285000  0.00872000  1.0
  Cd  Cd15  1  0.67863000  0.98028000  0.32855000  1.0
  Cd  Cd16  1  0.90476000  0.47597000  0.33323000  1.0
  Cd  Cd17  1  0.63976000  0.49715000  0.50872000  1.0
  Cd  Cd18  1  0.82137000  0.48028000  0.67145000  1.0
  Cd  Cd19  1  0.59524000  0.97597000  0.66677000  1.0
  Cd  Cd20  1  0.86024000  0.99715000  0.49128000  1.0
  Cd  Cd21  1  0.17863000  0.01972000  0.17145000  1.0
  Cd  Cd22  1  0.40476000  0.52403000  0.16677000  1.0
  Cd  Cd23  1  0.13976000  0.50285000  0.99128000  1.0
  H  H24  1  0.91390000  0.40090000  0.14320000  1.0
  H  H25  1  0.66640000  0.06440000  0.13010000  1.0
  H  H26  1  0.87570000  0.10620000  0.21400000  1.0
  H  H27  1  0.88560000  0.24080000  0.22120000  1.0
  H  H28  1  0.90500000  0.32560000  0.18630000  1.0
  H  H29  1  0.90930000  0.52390000  0.12330000  1.0
  H  H30  1  0.89630000  0.63970000  0.09880000  1.0
  H  H31  1  0.89030000  0.63140000  0.05440000  1.0
  H  H32  1  0.91870000  0.40190000  0.05670000  1.0
  H  H33  1  0.92570000  0.15990000  0.06830000  1.0
  H  H34  1  0.92270000  0.02290000  0.06640000  1.0
  H  H35  1  0.91540000  0.95080000  0.10470000  1.0
  H  H36  1  0.64190000  0.33250000  0.21250000  1.0
  H  H37  1  0.63850000  0.19550000  0.21390000  1.0
  H  H38  1  0.65580000  0.12380000  0.17600000  1.0
  H  H39  1  0.66480000  0.94970000  0.10610000  1.0
  H  H40  1  0.65730000  0.84260000  0.07800000  1.0
  H  H41  1  0.65600000  0.86390000  0.03380000  1.0
  H  H42  1  0.67350000  0.09260000  0.04400000  1.0
  H  H43  1  0.68500000  0.33290000  0.06580000  1.0
  H  H44  1  0.67670000  0.46920000  0.06950000  1.0
  H  H45  1  0.66870000  0.52590000  0.11030000  1.0
  H  H46  1  0.51960000  0.92980000  0.15360000  1.0
  H  H47  1  0.39310000  0.83750000  0.15640000  1.0
  H  H48  1  0.43110000  0.70420000  0.15810000  1.0
  H  H49  1  0.72150000  0.75660000  0.15960000  1.0
  H  H50  1  0.37270000  0.53500000  0.25490000  1.0
  H  H51  1  0.56020000  0.51010000  0.31440000  1.0
  H  H52  1  0.69190000  0.50250000  0.28580000  1.0
  H  H53  1  0.66380000  0.50550000  0.24140000  1.0
  H  H54  1  0.01790000  0.94430000  0.98210000  1.0
  H  H55  1  0.14590000  0.85430000  0.98490000  1.0
  H  H56  1  0.11330000  0.72040000  0.98990000  1.0
  H  H57  1  0.82150000  0.76720000  0.98890000  1.0
  H  H58  1  0.08610000  0.09910000  0.64320000  1.0
  H  H59  1  0.33360000  0.43560000  0.63010000  1.0
  H  H60  1  0.12430000  0.39380000  0.71400000  1.0
  H  H61  1  0.11440000  0.25920000  0.72120000  1.0
  H  H62  1  0.09500000  0.17440000  0.68630000  1.0
  H  H63  1  0.09070000  0.97610000  0.62330000  1.0
  H  H64  1  0.10370000  0.86030000  0.59880000  1.0
  H  H65  1  0.10970000  0.86860000  0.55440000  1.0
  H  H66  1  0.08130000  0.09810000  0.55670000  1.0
  H  H67  1  0.07430000  0.34010000  0.56830000  1.0
  H  H68  1  0.07730000  0.47710000  0.56640000  1.0
  H  H69  1  0.08460000  0.54920000  0.60470000  1.0
  H  H70  1  0.35810000  0.16750000  0.71250000  1.0
  H  H71  1  0.36150000  0.30450000  0.71390000  1.0
  H  H72  1  0.34420000  0.37620000  0.67600000  1.0
  H  H73  1  0.33520000  0.55030000  0.60610000  1.0
  H  H74  1  0.34270000  0.65740000  0.57800000  1.0
  H  H75  1  0.34400000  0.63610000  0.53380000  1.0
  H  H76  1  0.32650000  0.40740000  0.54400000  1.0
  H  H77  1  0.31500000  0.16710000  0.56580000  1.0
  H  H78  1  0.32330000  0.03080000  0.56950000  1.0
  H  H79  1  0.33130000  0.97410000  0.61030000  1.0
  H  H80  1  0.48040000  0.57020000  0.65360000  1.0
  H  H81  1  0.60690000  0.66250000  0.65640000  1.0
  H  H82  1  0.56890000  0.79580000  0.65810000  1.0
  H  H83  1  0.27850000  0.74340000  0.65960000  1.0
  H  H84  1  0.62730000  0.96500000  0.75490000  1.0
  H  H85  1  0.43980000  0.98990000  0.81440000  1.0
  H  H86  1  0.30810000  0.99750000  0.78580000  1.0
  H  H87  1  0.33620000  0.99450000  0.74140000  1.0
  H  H88  1  0.98210000  0.55570000  0.48210000  1.0
  H  H89  1  0.85410000  0.64570000  0.48490000  1.0
  H  H90  1  0.88670000  0.77960000  0.48990000  1.0
  H  H91  1  0.17850000  0.73280000  0.48890000  1.0
  H  H92  1  0.41390000  0.59910000  0.35680000  1.0
  H  H93  1  0.16640000  0.93560000  0.36990000  1.0
  H  H94  1  0.37570000  0.89380000  0.28600000  1.0
  H  H95  1  0.38560000  0.75920000  0.27880000  1.0
  H  H96  1  0.40500000  0.67440000  0.31370000  1.0
  H  H97  1  0.40930000  0.47610000  0.37670000  1.0
  H  H98  1  0.39630000  0.36030000  0.40120000  1.0
  H  H99  1  0.39030000  0.36860000  0.44560000  1.0
  H  H100  1  0.41870000  0.59810000  0.44330000  1.0
  H  H101  1  0.42570000  0.84010000  0.43170000  1.0
  H  H102  1  0.42270000  0.97710000  0.43360000  1.0
  H  H103  1  0.41540000  0.04920000  0.39530000  1.0
  H  H104  1  0.14190000  0.66750000  0.28750000  1.0
  H  H105  1  0.13850000  0.80450000  0.28610000  1.0
  H  H106  1  0.15580000  0.87620000  0.32400000  1.0
  H  H107  1  0.16480000  0.05030000  0.39390000  1.0
  H  H108  1  0.15730000  0.15740000  0.42200000  1.0
  H  H109  1  0.15600000  0.13610000  0.46620000  1.0
  H  H110  1  0.17350000  0.90740000  0.45600000  1.0
  H  H111  1  0.18500000  0.66710000  0.43420000  1.0
  H  H112  1  0.17670000  0.53080000  0.43050000  1.0
  H  H113  1  0.16870000  0.47410000  0.38970000  1.0
  H  H114  1  0.01960000  0.07020000  0.34640000  1.0
  H  H115  1  0.89310000  0.16250000  0.34360000  1.0
  H  H116  1  0.93110000  0.29580000  0.34190000  1.0
  H  H117  1  0.22150000  0.24340000  0.34040000  1.0
  H  H118  1  0.87270000  0.46500000  0.24510000  1.0
  H  H119  1  0.06020000  0.48990000  0.18560000  1.0
  H  H120  1  0.19190000  0.49750000  0.21420000  1.0
  H  H121  1  0.16380000  0.49450000  0.25860000  1.0
  H  H122  1  0.51790000  0.05570000  0.51790000  1.0
  H  H123  1  0.64590000  0.14570000  0.51510000  1.0
  H  H124  1  0.61330000  0.27960000  0.51010000  1.0
  H  H125  1  0.32150000  0.23280000  0.51110000  1.0
  H  H126  1  0.58610000  0.90090000  0.85680000  1.0
  H  H127  1  0.83360000  0.56440000  0.86990000  1.0
  H  H128  1  0.62430000  0.60620000  0.78600000  1.0
  H  H129  1  0.61440000  0.74080000  0.77880000  1.0
  H  H130  1  0.59500000  0.82560000  0.81370000  1.0
  H  H131  1  0.59070000  0.02390000  0.87670000  1.0
  H  H132  1  0.60370000  0.13970000  0.90120000  1.0
  H  H133  1  0.60970000  0.13140000  0.94560000  1.0
  H  H134  1  0.58130000  0.90190000  0.94330000  1.0
  H  H135  1  0.57430000  0.65990000  0.93170000  1.0
  H  H136  1  0.57730000  0.52290000  0.93360000  1.0
  H  H137  1  0.58460000  0.45080000  0.89530000  1.0
  H  H138  1  0.85810000  0.83250000  0.78750000  1.0
  H  H139  1  0.86150000  0.69550000  0.78610000  1.0
  H  H140  1  0.84420000  0.62380000  0.82400000  1.0
  H  H141  1  0.83520000  0.44970000  0.89390000  1.0
  H  H142  1  0.84270000  0.34260000  0.92200000  1.0
  H  H143  1  0.84400000  0.36390000  0.96620000  1.0
  H  H144  1  0.82650000  0.59260000  0.95600000  1.0
  H  H145  1  0.81500000  0.83290000  0.93420000  1.0
  H  H146  1  0.82330000  0.96920000  0.93050000  1.0
  H  H147  1  0.83130000  0.02590000  0.88970000  1.0
  H  H148  1  0.98040000  0.42980000  0.84640000  1.0
  H  H149  1  0.10690000  0.33750000  0.84360000  1.0
  H  H150  1  0.06890000  0.20420000  0.84190000  1.0
  H  H151  1  0.77850000  0.25660000  0.84040000  1.0
  H  H152  1  0.12730000  0.03500000  0.74510000  1.0
  H  H153  1  0.93980000  0.01010000  0.68560000  1.0
  H  H154  1  0.80810000  0.00250000  0.71420000  1.0
  H  H155  1  0.83620000  0.00550000  0.75860000  1.0
  H  H156  1  0.48210000  0.44430000  0.01790000  1.0
  H  H157  1  0.35410000  0.35430000  0.01510000  1.0
  H  H158  1  0.38670000  0.22040000  0.01010000  1.0
  H  H159  1  0.67850000  0.26720000  0.01110000  1.0
  H  H160  1  0.08610000  0.59910000  0.85680000  1.0
  H  H161  1  0.33360000  0.93560000  0.86990000  1.0
  H  H162  1  0.12430000  0.89380000  0.78600000  1.0
  H  H163  1  0.11440000  0.75920000  0.77880000  1.0
  H  H164  1  0.09500000  0.67440000  0.81370000  1.0
  H  H165  1  0.09070000  0.47610000  0.87670000  1.0
  H  H166  1  0.10370000  0.36030000  0.90120000  1.0
  H  H167  1  0.10970000  0.36860000  0.94560000  1.0
  H  H168  1  0.08130000  0.59810000  0.94330000  1.0
  H  H169  1  0.07430000  0.84010000  0.93170000  1.0
  H  H170  1  0.07730000  0.97710000  0.93360000  1.0
  H  H171  1  0.08460000  0.04920000  0.89530000  1.0
  H  H172  1  0.35810000  0.66750000  0.78750000  1.0
  H  H173  1  0.36150000  0.80450000  0.78610000  1.0
  H  H174  1  0.34420000  0.87620000  0.82400000  1.0
  H  H175  1  0.33520000  0.05030000  0.89390000  1.0
  H  H176  1  0.34270000  0.15740000  0.92200000  1.0
  H  H177  1  0.34400000  0.13610000  0.96620000  1.0
  H  H178  1  0.32650000  0.90740000  0.95600000  1.0
  H  H179  1  0.31500000  0.66710000  0.93420000  1.0
  H  H180  1  0.32330000  0.53080000  0.93050000  1.0
  H  H181  1  0.33130000  0.47410000  0.88970000  1.0
  H  H182  1  0.48040000  0.07020000  0.84640000  1.0
  H  H183  1  0.60690000  0.16250000  0.84360000  1.0
  H  H184  1  0.56890000  0.29580000  0.84190000  1.0
  H  H185  1  0.27850000  0.24340000  0.84040000  1.0
  H  H186  1  0.62730000  0.46500000  0.74510000  1.0
  H  H187  1  0.43980000  0.48990000  0.68560000  1.0
  H  H188  1  0.30810000  0.49750000  0.71420000  1.0
  H  H189  1  0.33620000  0.49450000  0.75860000  1.0
  H  H190  1  0.98210000  0.05570000  0.01790000  1.0
  H  H191  1  0.85410000  0.14570000  0.01510000  1.0
  H  H192  1  0.88670000  0.27960000  0.01010000  1.0
  H  H193  1  0.17850000  0.23280000  0.01110000  1.0
  H  H194  1  0.91390000  0.90090000  0.35680000  1.0
  H  H195  1  0.66640000  0.56440000  0.36990000  1.0
  H  H196  1  0.87570000  0.60620000  0.28600000  1.0
  H  H197  1  0.88560000  0.74080000  0.27880000  1.0
  H  H198  1  0.90500000  0.82560000  0.31370000  1.0
  H  H199  1  0.90930000  0.02390000  0.37670000  1.0
  H  H200  1  0.89630000  0.13970000  0.40120000  1.0
  H  H201  1  0.89030000  0.13140000  0.44560000  1.0
  H  H202  1  0.91870000  0.90190000  0.44330000  1.0
  H  H203  1  0.92570000  0.65990000  0.43170000  1.0
  H  H204  1  0.92270000  0.52290000  0.43360000  1.0
  H  H205  1  0.91540000  0.45080000  0.39530000  1.0
  H  H206  1  0.64190000  0.83250000  0.28750000  1.0
  H  H207  1  0.63850000  0.69550000  0.28610000  1.0
  H  H208  1  0.65580000  0.62380000  0.32400000  1.0
  H  H209  1  0.66480000  0.44970000  0.39390000  1.0
  H  H210  1  0.65730000  0.34260000  0.42200000  1.0
  H  H211  1  0.65600000  0.36390000  0.46620000  1.0
  H  H212  1  0.67350000  0.59260000  0.45600000  1.0
  H  H213  1  0.68500000  0.83290000  0.43420000  1.0
  H  H214  1  0.67670000  0.96920000  0.43050000  1.0
  H  H215  1  0.66870000  0.02590000  0.38970000  1.0
  H  H216  1  0.51960000  0.42980000  0.34640000  1.0
  H  H217  1  0.39310000  0.33750000  0.34360000  1.0
  H  H218  1  0.43110000  0.20420000  0.34190000  1.0
  H  H219  1  0.72150000  0.25660000  0.34040000  1.0
  H  H220  1  0.37270000  0.03500000  0.24510000  1.0
  H  H221  1  0.56020000  0.01010000  0.18560000  1.0
  H  H222  1  0.69190000  0.00250000  0.21420000  1.0
  H  H223  1  0.66380000  0.00550000  0.25860000  1.0
  H  H224  1  0.01790000  0.44430000  0.51790000  1.0
  H  H225  1  0.14590000  0.35430000  0.51510000  1.0
  H  H226  1  0.11330000  0.22040000  0.51010000  1.0
  H  H227  1  0.82150000  0.26720000  0.51110000  1.0
  H  H228  1  0.58610000  0.40090000  0.64320000  1.0
  H  H229  1  0.83360000  0.06440000  0.63010000  1.0
  H  H230  1  0.62430000  0.10620000  0.71400000  1.0
  H  H231  1  0.61440000  0.24080000  0.72120000  1.0
  H  H232  1  0.59500000  0.32560000  0.68630000  1.0
  H  H233  1  0.59070000  0.52390000  0.62330000  1.0
  H  H234  1  0.60370000  0.63970000  0.59880000  1.0
  H  H235  1  0.60970000  0.63140000  0.55440000  1.0
  H  H236  1  0.58130000  0.40190000  0.55670000  1.0
  H  H237  1  0.57430000  0.15990000  0.56830000  1.0
  H  H238  1  0.57730000  0.02290000  0.56640000  1.0
  H  H239  1  0.58460000  0.95080000  0.60470000  1.0
  H  H240  1  0.85810000  0.33250000  0.71250000  1.0
  H  H241  1  0.86150000  0.19550000  0.71390000  1.0
  H  H242  1  0.84420000  0.12380000  0.67600000  1.0
  H  H243  1  0.83520000  0.94970000  0.60610000  1.0
  H  H244  1  0.84270000  0.84260000  0.57800000  1.0
  H  H245  1  0.84400000  0.86390000  0.53380000  1.0
  H  H246  1  0.82650000  0.09260000  0.54400000  1.0
  H  H247  1  0.81500000  0.33290000  0.56580000  1.0
  H  H248  1  0.82330000  0.46920000  0.56950000  1.0
  H  H249  1  0.83130000  0.52590000  0.61030000  1.0
  H  H250  1  0.98040000  0.92980000  0.65360000  1.0
  H  H251  1  0.10690000  0.83750000  0.65640000  1.0
  H  H252  1  0.06890000  0.70420000  0.65810000  1.0
  H  H253  1  0.77850000  0.75660000  0.65960000  1.0
  H  H254  1  0.12730000  0.53500000  0.75490000  1.0
  H  H255  1  0.93980000  0.51010000  0.81440000  1.0
  H  H256  1  0.80810000  0.50250000  0.78580000  1.0
  H  H257  1  0.83620000  0.50550000  0.74140000  1.0
  H  H258  1  0.48210000  0.94430000  0.48210000  1.0
  H  H259  1  0.35410000  0.85430000  0.48490000  1.0
  H  H260  1  0.38670000  0.72040000  0.48990000  1.0
  H  H261  1  0.67850000  0.76720000  0.48890000  1.0
  H  H262  1  0.41390000  0.09910000  0.14320000  1.0
  H  H263  1  0.16640000  0.43560000  0.13010000  1.0
  H  H264  1  0.37570000  0.39380000  0.21400000  1.0
  H  H265  1  0.38560000  0.25920000  0.22120000  1.0
  H  H266  1  0.40500000  0.17440000  0.18630000  1.0
  H  H267  1  0.40930000  0.97610000  0.12330000  1.0
  H  H268  1  0.39630000  0.86030000  0.09880000  1.0
  H  H269  1  0.39030000  0.86860000  0.05440000  1.0
  H  H270  1  0.41870000  0.09810000  0.05670000  1.0
  H  H271  1  0.42570000  0.34010000  0.06830000  1.0
  H  H272  1  0.42270000  0.47710000  0.06640000  1.0
  H  H273  1  0.41540000  0.54920000  0.10470000  1.0
  H  H274  1  0.14190000  0.16750000  0.21250000  1.0
  H  H275  1  0.13850000  0.30450000  0.21390000  1.0
  H  H276  1  0.15580000  0.37620000  0.17600000  1.0
  H  H277  1  0.16480000  0.55030000  0.10610000  1.0
  H  H278  1  0.15730000  0.65740000  0.07800000  1.0
  H  H279  1  0.15600000  0.63610000  0.03380000  1.0
  H  H280  1  0.17350000  0.40740000  0.04400000  1.0
  H  H281  1  0.18500000  0.16710000  0.06580000  1.0
  H  H282  1  0.17670000  0.03080000  0.06950000  1.0
  H  H283  1  0.16870000  0.97410000  0.11030000  1.0
  H  H284  1  0.01960000  0.57020000  0.15360000  1.0
  H  H285  1  0.89310000  0.66250000  0.15640000  1.0
  H  H286  1  0.93110000  0.79580000  0.15810000  1.0
  H  H287  1  0.22150000  0.74340000  0.15960000  1.0
  H  H288  1  0.87270000  0.96500000  0.25490000  1.0
  H  H289  1  0.06020000  0.98990000  0.31440000  1.0
  H  H290  1  0.19190000  0.99750000  0.28580000  1.0
  H  H291  1  0.16380000  0.99450000  0.24140000  1.0
  H  H292  1  0.51790000  0.55570000  0.98210000  1.0
  H  H293  1  0.64590000  0.64570000  0.98490000  1.0
  H  H294  1  0.61330000  0.77960000  0.98990000  1.0
  H  H295  1  0.32150000  0.73280000  0.98890000  1.0
  C  C296  1  0.88470000  0.14030000  0.19973000  1.0
  C  C297  1  0.88970000  0.22070000  0.20418000  1.0
  C  C298  1  0.90070000  0.27050000  0.18361000  1.0
  C  C299  1  0.90570000  0.23940000  0.15853000  1.0
  C  C300  1  0.91440000  0.28390000  0.13531000  1.0
  C  C301  1  0.91970000  0.37400000  0.10515000  1.0
  C  C302  1  0.91570000  0.45040000  0.09231000  1.0
  C  C303  1  0.90840000  0.52180000  0.10503000  1.0
  C  C304  1  0.89990000  0.58990000  0.09061000  1.0
  C  C305  1  0.89660000  0.58440000  0.06416000  1.0
  C  C306  1  0.91270000  0.45070000  0.06546000  1.0
  C  C307  1  0.91910000  0.25030000  0.11122000  1.0
  C  C308  1  0.91700000  0.16700000  0.10779000  1.0
  C  C309  1  0.92170000  0.12970000  0.08368000  1.0
  C  C310  1  0.92030000  0.04920000  0.08251000  1.0
  C  C311  1  0.91530000  0.00660000  0.10546000  1.0
  C  C312  1  0.91030000  0.12020000  0.13007000  1.0
  C  C313  1  0.90330000  0.15680000  0.15570000  1.0
  C  C314  1  0.64750000  0.30380000  0.19687000  1.0
  C  C315  1  0.64590000  0.22180000  0.19785000  1.0
  C  C316  1  0.65500000  0.17970000  0.17555000  1.0
  C  C317  1  0.66340000  0.21970000  0.15198000  1.0
  C  C318  1  0.66960000  0.18360000  0.12713000  1.0
  C  C319  1  0.67300000  0.10540000  0.09350000  1.0
  C  C320  1  0.67000000  0.03340000  0.07779000  1.0
  C  C321  1  0.66490000  0.95770000  0.08802000  1.0
  C  C322  1  0.66000000  0.89470000  0.07140000  1.0
  C  C323  1  0.65900000  0.90770000  0.04515000  1.0
  C  C324  1  0.66900000  0.04130000  0.05118000  1.0
  C  C325  1  0.67450000  0.22620000  0.10438000  1.0
  C  C326  1  0.67510000  0.31020000  0.10462000  1.0
  C  C327  1  0.67950000  0.35680000  0.08227000  1.0
  C  C328  1  0.67590000  0.43690000  0.08447000  1.0
  C  C329  1  0.67120000  0.47030000  0.10894000  1.0
  C  C330  1  0.67010000  0.34860000  0.12869000  1.0
  C  C331  1  0.66350000  0.30270000  0.15241000  1.0
  C  C332  1  0.63230000  0.85180000  0.15632000  1.0
  C  C333  1  0.53490000  0.87550000  0.15524000  1.0
  C  C334  1  0.45980000  0.82090000  0.15649000  1.0
  C  C335  1  0.48260000  0.74200000  0.15788000  1.0
  C  C336  1  0.58020000  0.71690000  0.15889000  1.0
  C  C337  1  0.65480000  0.77280000  0.15844000  1.0
  C  C338  1  0.71430000  0.91030000  0.15588000  1.0
  C  C339  1  0.60660000  0.63190000  0.15977000  1.0
  C  C340  1  0.51550000  0.52190000  0.24411000  1.0
  C  C341  1  0.43760000  0.52730000  0.26122000  1.0
  C  C342  1  0.45370000  0.52150000  0.28744000  1.0
  C  C343  1  0.54840000  0.51280000  0.29638000  1.0
  C  C344  1  0.62680000  0.50790000  0.27942000  1.0
  C  C345  1  0.61050000  0.51090000  0.25315000  1.0
  C  C346  1  0.49500000  0.52420000  0.21575000  1.0
  C  C347  1  0.36640000  0.52300000  0.30560000  1.0
  C  C348  1  0.90650000  0.86490000  0.98507000  1.0
  C  C349  1  0.00370000  0.89000000  0.98402000  1.0
  C  C350  1  0.07970000  0.83650000  0.98580000  1.0
  C  C351  1  0.06050000  0.75690000  0.98892000  1.0
  C  C352  1  0.96410000  0.73060000  0.99063000  1.0
  C  C353  1  0.88770000  0.78500000  0.98831000  1.0
  C  C354  1  0.82080000  0.92160000  0.98363000  1.0
  C  C355  1  0.94030000  0.64660000  0.99607000  1.0
  C  C356  1  0.11530000  0.35970000  0.69973000  1.0
  C  C357  1  0.11030000  0.27930000  0.70418000  1.0
  C  C358  1  0.09930000  0.22950000  0.68361000  1.0
  C  C359  1  0.09430000  0.26060000  0.65853000  1.0
  C  C360  1  0.08560000  0.21610000  0.63531000  1.0
  C  C361  1  0.08030000  0.12600000  0.60515000  1.0
  C  C362  1  0.08430000  0.04960000  0.59231000  1.0
  C  C363  1  0.09160000  0.97820000  0.60503000  1.0
  C  C364  1  0.10010000  0.91010000  0.59061000  1.0
  C  C365  1  0.10340000  0.91560000  0.56416000  1.0
  C  C366  1  0.08730000  0.04930000  0.56546000  1.0
  C  C367  1  0.08090000  0.24970000  0.61122000  1.0
  C  C368  1  0.08300000  0.33300000  0.60779000  1.0
  C  C369  1  0.07830000  0.37030000  0.58368000  1.0
  C  C370  1  0.07970000  0.45080000  0.58251000  1.0
  C  C371  1  0.08470000  0.49340000  0.60546000  1.0
  C  C372  1  0.08970000  0.37980000  0.63007000  1.0
  C  C373  1  0.09670000  0.34320000  0.65570000  1.0
  C  C374  1  0.35250000  0.19620000  0.69687000  1.0
  C  C375  1  0.35410000  0.27820000  0.69785000  1.0
  C  C376  1  0.34500000  0.32030000  0.67555000  1.0
  C  C377  1  0.33660000  0.28030000  0.65198000  1.0
  C  C378  1  0.33040000  0.31640000  0.62713000  1.0
  C  C379  1  0.32700000  0.39460000  0.59350000  1.0
  C  C380  1  0.33000000  0.46660000  0.57779000  1.0
  C  C381  1  0.33510000  0.54230000  0.58802000  1.0
  C  C382  1  0.34000000  0.60530000  0.57140000  1.0
  C  C383  1  0.34100000  0.59230000  0.54515000  1.0
  C  C384  1  0.33100000  0.45870000  0.55118000  1.0
  C  C385  1  0.32550000  0.27380000  0.60438000  1.0
  C  C386  1  0.32490000  0.18980000  0.60462000  1.0
  C  C387  1  0.32050000  0.14320000  0.58227000  1.0
  C  C388  1  0.32410000  0.06310000  0.58447000  1.0
  C  C389  1  0.32880000  0.02970000  0.60894000  1.0
  C  C390  1  0.32990000  0.15140000  0.62869000  1.0
  C  C391  1  0.33650000  0.19730000  0.65241000  1.0
  C  C392  1  0.36770000  0.64820000  0.65632000  1.0
  C  C393  1  0.46510000  0.62450000  0.65524000  1.0
  C  C394  1  0.54020000  0.67910000  0.65649000  1.0
  C  C395  1  0.51740000  0.75800000  0.65788000  1.0
  C  C396  1  0.41980000  0.78310000  0.65889000  1.0
  C  C397  1  0.34520000  0.72720000  0.65844000  1.0
  C  C398  1  0.28570000  0.58970000  0.65588000  1.0
  C  C399  1  0.39340000  0.86810000  0.65977000  1.0
  C  C400  1  0.48450000  0.97810000  0.74411000  1.0
  C  C401  1  0.56240000  0.97270000  0.76122000  1.0
  C  C402  1  0.54630000  0.97850000  0.78744000  1.0
  C  C403  1  0.45160000  0.98720000  0.79638000  1.0
  C  C404  1  0.37320000  0.99210000  0.77942000  1.0
  C  C405  1  0.38950000  0.98910000  0.75315000  1.0
  C  C406  1  0.50500000  0.97580000  0.71575000  1.0
  C  C407  1  0.63360000  0.97700000  0.80560000  1.0
  C  C408  1  0.09350000  0.63510000  0.48507000  1.0
  C  C409  1  0.99630000  0.61000000  0.48402000  1.0
  C  C410  1  0.92030000  0.66350000  0.48580000  1.0
  C  C411  1  0.93950000  0.74310000  0.48892000  1.0
  C  C412  1  0.03590000  0.76940000  0.49063000  1.0
  C  C413  1  0.11230000  0.71500000  0.48831000  1.0
  C  C414  1  0.17920000  0.57840000  0.48363000  1.0
  C  C415  1  0.05970000  0.85340000  0.49607000  1.0
  C  C416  1  0.38470000  0.85970000  0.30027000  1.0
  C  C417  1  0.38970000  0.77930000  0.29582000  1.0
  C  C418  1  0.40070000  0.72950000  0.31639000  1.0
  C  C419  1  0.40570000  0.76060000  0.34147000  1.0
  C  C420  1  0.41440000  0.71610000  0.36469000  1.0
  C  C421  1  0.41970000  0.62600000  0.39485000  1.0
  C  C422  1  0.41570000  0.54960000  0.40769000  1.0
  C  C423  1  0.40840000  0.47820000  0.39497000  1.0
  C  C424  1  0.39990000  0.41010000  0.40939000  1.0
  C  C425  1  0.39660000  0.41560000  0.43584000  1.0
  C  C426  1  0.41270000  0.54930000  0.43454000  1.0
  C  C427  1  0.41910000  0.74970000  0.38878000  1.0
  C  C428  1  0.41700000  0.83300000  0.39221000  1.0
  C  C429  1  0.42170000  0.87030000  0.41632000  1.0
  C  C430  1  0.42030000  0.95080000  0.41749000  1.0
  C  C431  1  0.41530000  0.99340000  0.39454000  1.0
  C  C432  1  0.41030000  0.87980000  0.36993000  1.0
  C  C433  1  0.40330000  0.84320000  0.34430000  1.0
  C  C434  1  0.14750000  0.69620000  0.30313000  1.0
  C  C435  1  0.14590000  0.77820000  0.30215000  1.0
  C  C436  1  0.15500000  0.82030000  0.32445000  1.0
  C  C437  1  0.16340000  0.78030000  0.34802000  1.0
  C  C438  1  0.16960000  0.81640000  0.37287000  1.0
  C  C439  1  0.17300000  0.89460000  0.40650000  1.0
  C  C440  1  0.17000000  0.96660000  0.42221000  1.0
  C  C441  1  0.16490000  0.04230000  0.41198000  1.0
  C  C442  1  0.16000000  0.10530000  0.42860000  1.0
  C  C443  1  0.15900000  0.09230000  0.45485000  1.0
  C  C444  1  0.16900000  0.95870000  0.44882000  1.0
  C  C445  1  0.17450000  0.77380000  0.39562000  1.0
  C  C446  1  0.17510000  0.68980000  0.39538000  1.0
  C  C447  1  0.17950000  0.64320000  0.41773000  1.0
  C  C448  1  0.17590000  0.56310000  0.41553000  1.0
  C  C449  1  0.17120000  0.52970000  0.39106000  1.0
  C  C450  1  0.17010000  0.65140000  0.37131000  1.0
  C  C451  1  0.16350000  0.69730000  0.34759000  1.0
  C  C452  1  0.13230000  0.14820000  0.34368000  1.0
  C  C453  1  0.03490000  0.12450000  0.34476000  1.0
  C  C454  1  0.95980000  0.17910000  0.34351000  1.0
  C  C455  1  0.98260000  0.25800000  0.34212000  1.0
  C  C456  1  0.08020000  0.28310000  0.34111000  1.0
  C  C457  1  0.15480000  0.22720000  0.34156000  1.0
  C  C458  1  0.21430000  0.08970000  0.34412000  1.0
  C  C459  1  0.10660000  0.36810000  0.34023000  1.0
  C  C460  1  0.01550000  0.47810000  0.25589000  1.0
  C  C461  1  0.93760000  0.47270000  0.23878000  1.0
  C  C462  1  0.95370000  0.47850000  0.21256000  1.0
  C  C463  1  0.04840000  0.48720000  0.20362000  1.0
  C  C464  1  0.12680000  0.49210000  0.22058000  1.0
  C  C465  1  0.11050000  0.48910000  0.24685000  1.0
  C  C466  1  0.99500000  0.47580000  0.28425000  1.0
  C  C467  1  0.86640000  0.47700000  0.19440000  1.0
  C  C468  1  0.40650000  0.13510000  0.51493000  1.0
  C  C469  1  0.50370000  0.11000000  0.51598000  1.0
  C  C470  1  0.57970000  0.16350000  0.51420000  1.0
  C  C471  1  0.56050000  0.24310000  0.51108000  1.0
  C  C472  1  0.46410000  0.26940000  0.50937000  1.0
  C  C473  1  0.38770000  0.21500000  0.51169000  1.0
  C  C474  1  0.32080000  0.07840000  0.51637000  1.0
  C  C475  1  0.44030000  0.35340000  0.50393000  1.0
  C  C476  1  0.61530000  0.64030000  0.80027000  1.0
  C  C477  1  0.61030000  0.72070000  0.79582000  1.0
  C  C478  1  0.59930000  0.77050000  0.81639000  1.0
  C  C479  1  0.59430000  0.73940000  0.84147000  1.0
  C  C480  1  0.58560000  0.78390000  0.86469000  1.0
  C  C481  1  0.58030000  0.87400000  0.89485000  1.0
  C  C482  1  0.58430000  0.95040000  0.90769000  1.0
  C  C483  1  0.59160000  0.02180000  0.89497000  1.0
  C  C484  1  0.60010000  0.08990000  0.90939000  1.0
  C  C485  1  0.60340000  0.08440000  0.93584000  1.0
  C  C486  1  0.58730000  0.95070000  0.93454000  1.0
  C  C487  1  0.58090000  0.75030000  0.88878000  1.0
  C  C488  1  0.58300000  0.66700000  0.89221000  1.0
  C  C489  1  0.57830000  0.62970000  0.91632000  1.0
  C  C490  1  0.57970000  0.54920000  0.91749000  1.0
  C  C491  1  0.58470000  0.50660000  0.89454000  1.0
  C  C492  1  0.58970000  0.62020000  0.86993000  1.0
  C  C493  1  0.59670000  0.65680000  0.84430000  1.0
  C  C494  1  0.85250000  0.80380000  0.80313000  1.0
  C  C495  1  0.85410000  0.72180000  0.80215000  1.0
  C  C496  1  0.84500000  0.67970000  0.82445000  1.0
  C  C497  1  0.83660000  0.71970000  0.84802000  1.0
  C  C498  1  0.83040000  0.68360000  0.87287000  1.0
  C  C499  1  0.82700000  0.60540000  0.90650000  1.0
  C  C500  1  0.83000000  0.53340000  0.92221000  1.0
  C  C501  1  0.83510000  0.45770000  0.91198000  1.0
  C  C502  1  0.84000000  0.39470000  0.92860000  1.0
  C  C503  1  0.84100000  0.40770000  0.95485000  1.0
  C  C504  1  0.83100000  0.54130000  0.94882000  1.0
  C  C505  1  0.82550000  0.72620000  0.89562000  1.0
  C  C506  1  0.82490000  0.81020000  0.89538000  1.0
  C  C507  1  0.82050000  0.85680000  0.91773000  1.0
  C  C508  1  0.82410000  0.93690000  0.91553000  1.0
  C  C509  1  0.82880000  0.97030000  0.89106000  1.0
  C  C510  1  0.82990000  0.84860000  0.87131000  1.0
  C  C511  1  0.83650000  0.80270000  0.84759000  1.0
  C  C512  1  0.86770000  0.35180000  0.84368000  1.0
  C  C513  1  0.96510000  0.37550000  0.84476000  1.0
  C  C514  1  0.04020000  0.32090000  0.84351000  1.0
  C  C515  1  0.01740000  0.24200000  0.84212000  1.0
  C  C516  1  0.91980000  0.21690000  0.84111000  1.0
  C  C517  1  0.84520000  0.27280000  0.84156000  1.0
  C  C518  1  0.78570000  0.41030000  0.84412000  1.0
  C  C519  1  0.89340000  0.13190000  0.84023000  1.0
  C  C520  1  0.98450000  0.02190000  0.75589000  1.0
  C  C521  1  0.06240000  0.02730000  0.73878000  1.0
  C  C522  1  0.04630000  0.02150000  0.71256000  1.0
  C  C523  1  0.95160000  0.01280000  0.70362000  1.0
  C  C524  1  0.87320000  0.00790000  0.72058000  1.0
  C  C525  1  0.88950000  0.01090000  0.74685000  1.0
  C  C526  1  0.00500000  0.02420000  0.78425000  1.0
  C  C527  1  0.13360000  0.02300000  0.69440000  1.0
  C  C528  1  0.59350000  0.36490000  0.01493000  1.0
  C  C529  1  0.49630000  0.39000000  0.01598000  1.0
  C  C530  1  0.42030000  0.33650000  0.01420000  1.0
  C  C531  1  0.43950000  0.25690000  0.01108000  1.0
  C  C532  1  0.53590000  0.23060000  0.00937000  1.0
  C  C533  1  0.61230000  0.28500000  0.01169000  1.0
  C  C534  1  0.67920000  0.42160000  0.01637000  1.0
  C  C535  1  0.55970000  0.14660000  0.00393000  1.0
  C  C536  1  0.11530000  0.85970000  0.80027000  1.0
  C  C537  1  0.11030000  0.77930000  0.79582000  1.0
  C  C538  1  0.09930000  0.72950000  0.81639000  1.0
  C  C539  1  0.09430000  0.76060000  0.84147000  1.0
  C  C540  1  0.08560000  0.71610000  0.86469000  1.0
  C  C541  1  0.08030000  0.62600000  0.89485000  1.0
  C  C542  1  0.08430000  0.54960000  0.90769000  1.0
  C  C543  1  0.09160000  0.47820000  0.89497000  1.0
  C  C544  1  0.10010000  0.41010000  0.90939000  1.0
  C  C545  1  0.10340000  0.41560000  0.93584000  1.0
  C  C546  1  0.08730000  0.54930000  0.93454000  1.0
  C  C547  1  0.08090000  0.74970000  0.88878000  1.0
  C  C548  1  0.08300000  0.83300000  0.89221000  1.0
  C  C549  1  0.07830000  0.87030000  0.91632000  1.0
  C  C550  1  0.07970000  0.95080000  0.91749000  1.0
  C  C551  1  0.08470000  0.99340000  0.89454000  1.0
  C  C552  1  0.08970000  0.87980000  0.86993000  1.0
  C  C553  1  0.09670000  0.84320000  0.84430000  1.0
  C  C554  1  0.35250000  0.69620000  0.80313000  1.0
  C  C555  1  0.35410000  0.77820000  0.80215000  1.0
  C  C556  1  0.34500000  0.82030000  0.82445000  1.0
  C  C557  1  0.33660000  0.78030000  0.84802000  1.0
  C  C558  1  0.33040000  0.81640000  0.87287000  1.0
  C  C559  1  0.32700000  0.89460000  0.90650000  1.0
  C  C560  1  0.33000000  0.96660000  0.92221000  1.0
  C  C561  1  0.33510000  0.04230000  0.91198000  1.0
  C  C562  1  0.34000000  0.10530000  0.92860000  1.0
  C  C563  1  0.34100000  0.09230000  0.95485000  1.0
  C  C564  1  0.33100000  0.95870000  0.94882000  1.0
  C  C565  1  0.32550000  0.77380000  0.89562000  1.0
  C  C566  1  0.32490000  0.68980000  0.89538000  1.0
  C  C567  1  0.32050000  0.64320000  0.91773000  1.0
  C  C568  1  0.32410000  0.56310000  0.91553000  1.0
  C  C569  1  0.32880000  0.52970000  0.89106000  1.0
  C  C570  1  0.32990000  0.65140000  0.87131000  1.0
  C  C571  1  0.33650000  0.69730000  0.84759000  1.0
  C  C572  1  0.36770000  0.14820000  0.84368000  1.0
  C  C573  1  0.46510000  0.12450000  0.84476000  1.0
  C  C574  1  0.54020000  0.17910000  0.84351000  1.0
  C  C575  1  0.51740000  0.25800000  0.84212000  1.0
  C  C576  1  0.41980000  0.28310000  0.84111000  1.0
  C  C577  1  0.34520000  0.22720000  0.84156000  1.0
  C  C578  1  0.28570000  0.08970000  0.84412000  1.0
  C  C579  1  0.39340000  0.36810000  0.84023000  1.0
  C  C580  1  0.48450000  0.47810000  0.75589000  1.0
  C  C581  1  0.56240000  0.47270000  0.73878000  1.0
  C  C582  1  0.54630000  0.47850000  0.71256000  1.0
  C  C583  1  0.45160000  0.48720000  0.70362000  1.0
  C  C584  1  0.37320000  0.49210000  0.72058000  1.0
  C  C585  1  0.38950000  0.48910000  0.74685000  1.0
  C  C586  1  0.50500000  0.47580000  0.78425000  1.0
  C  C587  1  0.63360000  0.47700000  0.69440000  1.0
  C  C588  1  0.09350000  0.13510000  0.01493000  1.0
  C  C589  1  0.99630000  0.11000000  0.01598000  1.0
  C  C590  1  0.92030000  0.16350000  0.01420000  1.0
  C  C591  1  0.93950000  0.24310000  0.01108000  1.0
  C  C592  1  0.03590000  0.26940000  0.00937000  1.0
  C  C593  1  0.11230000  0.21500000  0.01169000  1.0
  C  C594  1  0.17920000  0.07840000  0.01637000  1.0
  C  C595  1  0.05970000  0.35340000  0.00393000  1.0
  C  C596  1  0.88470000  0.64030000  0.30027000  1.0
  C  C597  1  0.88970000  0.72070000  0.29582000  1.0
  C  C598  1  0.90070000  0.77050000  0.31639000  1.0
  C  C599  1  0.90570000  0.73940000  0.34147000  1.0
  C  C600  1  0.91440000  0.78390000  0.36469000  1.0
  C  C601  1  0.91970000  0.87400000  0.39485000  1.0
  C  C602  1  0.91570000  0.95040000  0.40769000  1.0
  C  C603  1  0.90840000  0.02180000  0.39497000  1.0
  C  C604  1  0.89990000  0.08990000  0.40939000  1.0
  C  C605  1  0.89660000  0.08440000  0.43584000  1.0
  C  C606  1  0.91270000  0.95070000  0.43454000  1.0
  C  C607  1  0.91910000  0.75030000  0.38878000  1.0
  C  C608  1  0.91700000  0.66700000  0.39221000  1.0
  C  C609  1  0.92170000  0.62970000  0.41632000  1.0
  C  C610  1  0.92030000  0.54920000  0.41749000  1.0
  C  C611  1  0.91530000  0.50660000  0.39454000  1.0
  C  C612  1  0.91030000  0.62020000  0.36993000  1.0
  C  C613  1  0.90330000  0.65680000  0.34430000  1.0
  C  C614  1  0.64750000  0.80380000  0.30313000  1.0
  C  C615  1  0.64590000  0.72180000  0.30215000  1.0
  C  C616  1  0.65500000  0.67970000  0.32445000  1.0
  C  C617  1  0.66340000  0.71970000  0.34802000  1.0
  C  C618  1  0.66960000  0.68360000  0.37287000  1.0
  C  C619  1  0.67300000  0.60540000  0.40650000  1.0
  C  C620  1  0.67000000  0.53340000  0.42221000  1.0
  C  C621  1  0.66490000  0.45770000  0.41198000  1.0
  C  C622  1  0.66000000  0.39470000  0.42860000  1.0
  C  C623  1  0.65900000  0.40770000  0.45485000  1.0
  C  C624  1  0.66900000  0.54130000  0.44882000  1.0
  C  C625  1  0.67450000  0.72620000  0.39562000  1.0
  C  C626  1  0.67510000  0.81020000  0.39538000  1.0
  C  C627  1  0.67950000  0.85680000  0.41773000  1.0
  C  C628  1  0.67590000  0.93690000  0.41553000  1.0
  C  C629  1  0.67120000  0.97030000  0.39106000  1.0
  C  C630  1  0.67010000  0.84860000  0.37131000  1.0
  C  C631  1  0.66350000  0.80270000  0.34759000  1.0
  C  C632  1  0.63230000  0.35180000  0.34368000  1.0
  C  C633  1  0.53490000  0.37550000  0.34476000  1.0
  C  C634  1  0.45980000  0.32090000  0.34351000  1.0
  C  C635  1  0.48260000  0.24200000  0.34212000  1.0
  C  C636  1  0.58020000  0.21690000  0.34111000  1.0
  C  C637  1  0.65480000  0.27280000  0.34156000  1.0
  C  C638  1  0.71430000  0.41030000  0.34412000  1.0
  C  C639  1  0.60660000  0.13190000  0.34023000  1.0
  C  C640  1  0.51550000  0.02190000  0.25589000  1.0
  C  C641  1  0.43760000  0.02730000  0.23878000  1.0
  C  C642  1  0.45370000  0.02150000  0.21256000  1.0
  C  C643  1  0.54840000  0.01280000  0.20362000  1.0
  C  C644  1  0.62680000  0.00790000  0.22058000  1.0
  C  C645  1  0.61050000  0.01090000  0.24685000  1.0
  C  C646  1  0.49500000  0.02420000  0.28425000  1.0
  C  C647  1  0.36640000  0.02300000  0.19440000  1.0
  C  C648  1  0.90650000  0.36490000  0.51493000  1.0
  C  C649  1  0.00370000  0.39000000  0.51598000  1.0
  C  C650  1  0.07970000  0.33650000  0.51420000  1.0
  C  C651  1  0.06050000  0.25690000  0.51108000  1.0
  C  C652  1  0.96410000  0.23060000  0.50937000  1.0
  C  C653  1  0.88770000  0.28500000  0.51169000  1.0
  C  C654  1  0.82080000  0.42160000  0.51637000  1.0
  C  C655  1  0.94030000  0.14660000  0.50393000  1.0
  C  C656  1  0.61530000  0.14030000  0.69973000  1.0
  C  C657  1  0.61030000  0.22070000  0.70418000  1.0
  C  C658  1  0.59930000  0.27050000  0.68361000  1.0
  C  C659  1  0.59430000  0.23940000  0.65853000  1.0
  C  C660  1  0.58560000  0.28390000  0.63531000  1.0
  C  C661  1  0.58030000  0.37400000  0.60515000  1.0
  C  C662  1  0.58430000  0.45040000  0.59231000  1.0
  C  C663  1  0.59160000  0.52180000  0.60503000  1.0
  C  C664  1  0.60010000  0.58990000  0.59061000  1.0
  C  C665  1  0.60340000  0.58440000  0.56416000  1.0
  C  C666  1  0.58730000  0.45070000  0.56546000  1.0
  C  C667  1  0.58090000  0.25030000  0.61122000  1.0
  C  C668  1  0.58300000  0.16700000  0.60779000  1.0
  C  C669  1  0.57830000  0.12970000  0.58368000  1.0
  C  C670  1  0.57970000  0.04920000  0.58251000  1.0
  C  C671  1  0.58470000  0.00660000  0.60546000  1.0
  C  C672  1  0.58970000  0.12020000  0.63007000  1.0
  C  C673  1  0.59670000  0.15680000  0.65570000  1.0
  C  C674  1  0.85250000  0.30380000  0.69687000  1.0
  C  C675  1  0.85410000  0.22180000  0.69785000  1.0
  C  C676  1  0.84500000  0.17970000  0.67555000  1.0
  C  C677  1  0.83660000  0.21970000  0.65198000  1.0
  C  C678  1  0.83040000  0.18360000  0.62713000  1.0
  C  C679  1  0.82700000  0.10540000  0.59350000  1.0
  C  C680  1  0.83000000  0.03340000  0.57779000  1.0
  C  C681  1  0.83510000  0.95770000  0.58802000  1.0
  C  C682  1  0.84000000  0.89470000  0.57140000  1.0
  C  C683  1  0.84100000  0.90770000  0.54515000  1.0
  C  C684  1  0.83100000  0.04130000  0.55118000  1.0
  C  C685  1  0.82550000  0.22620000  0.60438000  1.0
  C  C686  1  0.82490000  0.31020000  0.60462000  1.0
  C  C687  1  0.82050000  0.35680000  0.58227000  1.0
  C  C688  1  0.82410000  0.43690000  0.58447000  1.0
  C  C689  1  0.82880000  0.47030000  0.60894000  1.0
  C  C690  1  0.82990000  0.34860000  0.62869000  1.0
  C  C691  1  0.83650000  0.30270000  0.65241000  1.0
  C  C692  1  0.86770000  0.85180000  0.65632000  1.0
  C  C693  1  0.96510000  0.87550000  0.65524000  1.0
  C  C694  1  0.04020000  0.82090000  0.65649000  1.0
  C  C695  1  0.01740000  0.74200000  0.65788000  1.0
  C  C696  1  0.91980000  0.71690000  0.65889000  1.0
  C  C697  1  0.84520000  0.77280000  0.65844000  1.0
  C  C698  1  0.78570000  0.91030000  0.65588000  1.0
  C  C699  1  0.89340000  0.63190000  0.65977000  1.0
  C  C700  1  0.98450000  0.52190000  0.74411000  1.0
  C  C701  1  0.06240000  0.52730000  0.76122000  1.0
  C  C702  1  0.04630000  0.52150000  0.78744000  1.0
  C  C703  1  0.95160000  0.51280000  0.79638000  1.0
  C  C704  1  0.87320000  0.50790000  0.77942000  1.0
  C  C705  1  0.88950000  0.51090000  0.75315000  1.0
  C  C706  1  0.00500000  0.52420000  0.71575000  1.0
  C  C707  1  0.13360000  0.52300000  0.80560000  1.0
  C  C708  1  0.59350000  0.86490000  0.48507000  1.0
  C  C709  1  0.49630000  0.89000000  0.48402000  1.0
  C  C710  1  0.42030000  0.83650000  0.48580000  1.0
  C  C711  1  0.43950000  0.75690000  0.48892000  1.0
  C  C712  1  0.53590000  0.73060000  0.49063000  1.0
  C  C713  1  0.61230000  0.78500000  0.48831000  1.0
  C  C714  1  0.67920000  0.92160000  0.48363000  1.0
  C  C715  1  0.55970000  0.64660000  0.49607000  1.0
  C  C716  1  0.38470000  0.35970000  0.19973000  1.0
  C  C717  1  0.38970000  0.27930000  0.20418000  1.0
  C  C718  1  0.40070000  0.22950000  0.18361000  1.0
  C  C719  1  0.40570000  0.26060000  0.15853000  1.0
  C  C720  1  0.41440000  0.21610000  0.13531000  1.0
  C  C721  1  0.41970000  0.12600000  0.10515000  1.0
  C  C722  1  0.41570000  0.04960000  0.09231000  1.0
  C  C723  1  0.40840000  0.97820000  0.10503000  1.0
  C  C724  1  0.39990000  0.91010000  0.09061000  1.0
  C  C725  1  0.39660000  0.91560000  0.06416000  1.0
  C  C726  1  0.41270000  0.04930000  0.06546000  1.0
  C  C727  1  0.41910000  0.24970000  0.11122000  1.0
  C  C728  1  0.41700000  0.33300000  0.10779000  1.0
  C  C729  1  0.42170000  0.37030000  0.08368000  1.0
  C  C730  1  0.42030000  0.45080000  0.08251000  1.0
  C  C731  1  0.41530000  0.49340000  0.10546000  1.0
  C  C732  1  0.41030000  0.37980000  0.13007000  1.0
  C  C733  1  0.40330000  0.34320000  0.15570000  1.0
  C  C734  1  0.14750000  0.19620000  0.19687000  1.0
  C  C735  1  0.14590000  0.27820000  0.19785000  1.0
  C  C736  1  0.15500000  0.32030000  0.17555000  1.0
  C  C737  1  0.16340000  0.28030000  0.15198000  1.0
  C  C738  1  0.16960000  0.31640000  0.12713000  1.0
  C  C739  1  0.17300000  0.39460000  0.09350000  1.0
  C  C740  1  0.17000000  0.46660000  0.07779000  1.0
  C  C741  1  0.16490000  0.54230000  0.08802000  1.0
  C  C742  1  0.16000000  0.60530000  0.07140000  1.0
  C  C743  1  0.15900000  0.59230000  0.04515000  1.0
  C  C744  1  0.16900000  0.45870000  0.05118000  1.0
  C  C745  1  0.17450000  0.27380000  0.10438000  1.0
  C  C746  1  0.17510000  0.18980000  0.10462000  1.0
  C  C747  1  0.17950000  0.14320000  0.08227000  1.0
  C  C748  1  0.17590000  0.06310000  0.08447000  1.0
  C  C749  1  0.17120000  0.02970000  0.10894000  1.0
  C  C750  1  0.17010000  0.15140000  0.12869000  1.0
  C  C751  1  0.16350000  0.19730000  0.15241000  1.0
  C  C752  1  0.13230000  0.64820000  0.15632000  1.0
  C  C753  1  0.03490000  0.62450000  0.15524000  1.0
  C  C754  1  0.95980000  0.67910000  0.15649000  1.0
  C  C755  1  0.98260000  0.75800000  0.15788000  1.0
  C  C756  1  0.08020000  0.78310000  0.15889000  1.0
  C  C757  1  0.15480000  0.72720000  0.15844000  1.0
  C  C758  1  0.21430000  0.58970000  0.15588000  1.0
  C  C759  1  0.10660000  0.86810000  0.15977000  1.0
  C  C760  1  0.01550000  0.97810000  0.24411000  1.0
  C  C761  1  0.93760000  0.97270000  0.26122000  1.0
  C  C762  1  0.95370000  0.97850000  0.28744000  1.0
  C  C763  1  0.04840000  0.98720000  0.29638000  1.0
  C  C764  1  0.12680000  0.99210000  0.27942000  1.0
  C  C765  1  0.11050000  0.98910000  0.25315000  1.0
  C  C766  1  0.99500000  0.97580000  0.21575000  1.0
  C  C767  1  0.86640000  0.97700000  0.30560000  1.0
  C  C768  1  0.40650000  0.63510000  0.98507000  1.0
  C  C769  1  0.50370000  0.61000000  0.98402000  1.0
  C  C770  1  0.57970000  0.66350000  0.98580000  1.0
  C  C771  1  0.56050000  0.74310000  0.98892000  1.0
  C  C772  1  0.46410000  0.76940000  0.99063000  1.0
  C  C773  1  0.38770000  0.71500000  0.98831000  1.0
  C  C774  1  0.32080000  0.57840000  0.98363000  1.0
  C  C775  1  0.44030000  0.85340000  0.99607000  1.0
  N  N776  1  0.89190000  0.10890000  0.17627000  1.0
  N  N777  1  0.91030000  0.04122000  0.12846000  1.0
  N  N778  1  0.65640000  0.34320000  0.17485000  1.0
  N  N779  1  0.66990000  0.42769000  0.13044000  1.0
  N  N780  1  0.92280000  0.30680000  0.09241000  1.0
  N  N781  1  0.91550000  0.36388000  0.13134000  1.0
  N  N782  1  0.67660000  0.17650000  0.08344000  1.0
  N  N783  1  0.66900000  0.10566000  0.11987000  1.0
  N  N784  1  0.90180000  0.51580000  0.05144000  1.0
  N  N785  1  0.66200000  0.97980000  0.03516000  1.0
  N  N786  1  0.10810000  0.39110000  0.67627000  1.0
  N  N787  1  0.08970000  0.45878000  0.62846000  1.0
  N  N788  1  0.34360000  0.15680000  0.67485000  1.0
  N  N789  1  0.33010000  0.07231000  0.63044000  1.0
  N  N790  1  0.07720000  0.19320000  0.59241000  1.0
  N  N791  1  0.08450000  0.13612000  0.63134000  1.0
  N  N792  1  0.32340000  0.32350000  0.58344000  1.0
  N  N793  1  0.33100000  0.39434000  0.61987000  1.0
  N  N794  1  0.09820000  0.98420000  0.55144000  1.0
  N  N795  1  0.33800000  0.52020000  0.53516000  1.0
  N  N796  1  0.39190000  0.89110000  0.32373000  1.0
  N  N797  1  0.41030000  0.95878000  0.37154000  1.0
  N  N798  1  0.15640000  0.65680000  0.32515000  1.0
  N  N799  1  0.16990000  0.57231000  0.36956000  1.0
  N  N800  1  0.42280000  0.69320000  0.40759000  1.0
  N  N801  1  0.41550000  0.63612000  0.36866000  1.0
  N  N802  1  0.17660000  0.82350000  0.41656000  1.0
  N  N803  1  0.16900000  0.89434000  0.38013000  1.0
  N  N804  1  0.40180000  0.48420000  0.44856000  1.0
  N  N805  1  0.16200000  0.02020000  0.46484000  1.0
  N  N806  1  0.60810000  0.60890000  0.82373000  1.0
  N  N807  1  0.58970000  0.54122000  0.87154000  1.0
  N  N808  1  0.84360000  0.84320000  0.82515000  1.0
  N  N809  1  0.83010000  0.92769000  0.86956000  1.0
  N  N810  1  0.57720000  0.80680000  0.90759000  1.0
  N  N811  1  0.58450000  0.86388000  0.86866000  1.0
  N  N812  1  0.82340000  0.67650000  0.91656000  1.0
  N  N813  1  0.83100000  0.60566000  0.88013000  1.0
  N  N814  1  0.59820000  0.01580000  0.94856000  1.0
  N  N815  1  0.83800000  0.47980000  0.96484000  1.0
  N  N816  1  0.10810000  0.89110000  0.82373000  1.0
  N  N817  1  0.08970000  0.95878000  0.87154000  1.0
  N  N818  1  0.34360000  0.65680000  0.82515000  1.0
  N  N819  1  0.33010000  0.57231000  0.86956000  1.0
  N  N820  1  0.07720000  0.69320000  0.90759000  1.0
  N  N821  1  0.08450000  0.63612000  0.86866000  1.0
  N  N822  1  0.32340000  0.82350000  0.91656000  1.0
  N  N823  1  0.33100000  0.89434000  0.88013000  1.0
  N  N824  1  0.09820000  0.48420000  0.94856000  1.0
  N  N825  1  0.33800000  0.02020000  0.96484000  1.0
  N  N826  1  0.89190000  0.60890000  0.32373000  1.0
  N  N827  1  0.91030000  0.54122000  0.37154000  1.0
  N  N828  1  0.65640000  0.84320000  0.32515000  1.0
  N  N829  1  0.66990000  0.92769000  0.36956000  1.0
  N  N830  1  0.92280000  0.80680000  0.40759000  1.0
  N  N831  1  0.91550000  0.86388000  0.36866000  1.0
  N  N832  1  0.67660000  0.67650000  0.41656000  1.0
  N  N833  1  0.66900000  0.60566000  0.38013000  1.0
  N  N834  1  0.90180000  0.01580000  0.44856000  1.0
  N  N835  1  0.66200000  0.47980000  0.46484000  1.0
  N  N836  1  0.60810000  0.10890000  0.67627000  1.0
  N  N837  1  0.58970000  0.04122000  0.62846000  1.0
  N  N838  1  0.84360000  0.34320000  0.67485000  1.0
  N  N839  1  0.83010000  0.42769000  0.63044000  1.0
  N  N840  1  0.57720000  0.30680000  0.59241000  1.0
  N  N841  1  0.58450000  0.36388000  0.63134000  1.0
  N  N842  1  0.82340000  0.17650000  0.58344000  1.0
  N  N843  1  0.83100000  0.10566000  0.61987000  1.0
  N  N844  1  0.59820000  0.51580000  0.55144000  1.0
  N  N845  1  0.83800000  0.97980000  0.53516000  1.0
  N  N846  1  0.39190000  0.39110000  0.17627000  1.0
  N  N847  1  0.41030000  0.45878000  0.12846000  1.0
  N  N848  1  0.15640000  0.15680000  0.17485000  1.0
  N  N849  1  0.16990000  0.07231000  0.13044000  1.0
  N  N850  1  0.42280000  0.19320000  0.09241000  1.0
  N  N851  1  0.41550000  0.13612000  0.13134000  1.0
  N  N852  1  0.17660000  0.32350000  0.08344000  1.0
  N  N853  1  0.16900000  0.39434000  0.11987000  1.0
  N  N854  1  0.40180000  0.98420000  0.05144000  1.0
  N  N855  1  0.16200000  0.52020000  0.03516000  1.0
  O  O856  1  0.69660000  0.98256000  0.15610000  1.0
  O  O857  1  0.80120000  0.88257000  0.15521000  1.0
  O  O858  1  0.54540000  0.58187000  0.15181000  1.0
  O  O859  1  0.68990000  0.61222000  0.16805000  1.0
  O  O860  1  0.41640000  0.55703000  0.20825000  1.0
  O  O861  1  0.55350000  0.49064000  0.20068000  1.0
  O  O862  1  0.28270000  0.52050000  0.29546000  1.0
  O  O863  1  0.37950000  0.52724000  0.32951000  1.0
  O  O864  1  0.73600000  0.89216000  0.98419000  1.0
  O  O865  1  0.83570000  0.99406000  0.98244000  1.0
  O  O866  1  0.85320000  0.62987000  0.00287000  1.0
  O  O867  1  0.00490000  0.59381000  0.99417000  1.0
  O  O868  1  0.30340000  0.51744000  0.65610000  1.0
  O  O869  1  0.19880000  0.61743000  0.65521000  1.0
  O  O870  1  0.45460000  0.91813000  0.65181000  1.0
  O  O871  1  0.31010000  0.88778000  0.66805000  1.0
  O  O872  1  0.58360000  0.94297000  0.70825000  1.0
  O  O873  1  0.44650000  0.00936000  0.70068000  1.0
  O  O874  1  0.71730000  0.97950000  0.79546000  1.0
  O  O875  1  0.62050000  0.97276000  0.82951000  1.0
  O  O876  1  0.26400000  0.60784000  0.48419000  1.0
  O  O877  1  0.16430000  0.50594000  0.48244000  1.0
  O  O878  1  0.14680000  0.87013000  0.50287000  1.0
  O  O879  1  0.99510000  0.90619000  0.49417000  1.0
  O  O880  1  0.19660000  0.01744000  0.34390000  1.0
  O  O881  1  0.30120000  0.11743000  0.34479000  1.0
  O  O882  1  0.04540000  0.41813000  0.34819000  1.0
  O  O883  1  0.18990000  0.38778000  0.33195000  1.0
  O  O884  1  0.91640000  0.44297000  0.29175000  1.0
  O  O885  1  0.05350000  0.50936000  0.29932000  1.0
  O  O886  1  0.78270000  0.47950000  0.20454000  1.0
  O  O887  1  0.87950000  0.47276000  0.17049000  1.0
  O  O888  1  0.23600000  0.10784000  0.51581000  1.0
  O  O889  1  0.33570000  0.00594000  0.51756000  1.0
  O  O890  1  0.35320000  0.37013000  0.49713000  1.0
  O  O891  1  0.50490000  0.40619000  0.50583000  1.0
  O  O892  1  0.80340000  0.48256000  0.84390000  1.0
  O  O893  1  0.69880000  0.38257000  0.84479000  1.0
  O  O894  1  0.95460000  0.08187000  0.84819000  1.0
  O  O895  1  0.81010000  0.11222000  0.83195000  1.0
  O  O896  1  0.08360000  0.05703000  0.79175000  1.0
  O  O897  1  0.94650000  0.99064000  0.79932000  1.0
  O  O898  1  0.21730000  0.02050000  0.70454000  1.0
  O  O899  1  0.12050000  0.02724000  0.67049000  1.0
  O  O900  1  0.76400000  0.39216000  0.01581000  1.0
  O  O901  1  0.66430000  0.49406000  0.01756000  1.0
  O  O902  1  0.64680000  0.12987000  0.99713000  1.0
  O  O903  1  0.49510000  0.09381000  0.00583000  1.0
  O  O904  1  0.30340000  0.01744000  0.84390000  1.0
  O  O905  1  0.19880000  0.11743000  0.84479000  1.0
  O  O906  1  0.45460000  0.41813000  0.84819000  1.0
  O  O907  1  0.31010000  0.38778000  0.83195000  1.0
  O  O908  1  0.58360000  0.44297000  0.79175000  1.0
  O  O909  1  0.44650000  0.50936000  0.79932000  1.0
  O  O910  1  0.71730000  0.47950000  0.70454000  1.0
  O  O911  1  0.62050000  0.47276000  0.67049000  1.0
  O  O912  1  0.26400000  0.10784000  0.01581000  1.0
  O  O913  1  0.16430000  0.00594000  0.01756000  1.0
  O  O914  1  0.14680000  0.37013000  0.99713000  1.0
  O  O915  1  0.99510000  0.40619000  0.00583000  1.0
  O  O916  1  0.69660000  0.48256000  0.34390000  1.0
  O  O917  1  0.80120000  0.38257000  0.34479000  1.0
  O  O918  1  0.54540000  0.08187000  0.34819000  1.0
  O  O919  1  0.68990000  0.11222000  0.33195000  1.0
  O  O920  1  0.41640000  0.05703000  0.29175000  1.0
  O  O921  1  0.55350000  0.99064000  0.29932000  1.0
  O  O922  1  0.28270000  0.02050000  0.20454000  1.0
  O  O923  1  0.37950000  0.02724000  0.17049000  1.0
  O  O924  1  0.73600000  0.39216000  0.51581000  1.0
  O  O925  1  0.83570000  0.49406000  0.51756000  1.0
  O  O926  1  0.85320000  0.12987000  0.49713000  1.0
  O  O927  1  0.00490000  0.09381000  0.50583000  1.0
  O  O928  1  0.80340000  0.98256000  0.65610000  1.0
  O  O929  1  0.69880000  0.88257000  0.65521000  1.0
  O  O930  1  0.95460000  0.58187000  0.65181000  1.0
  O  O931  1  0.81010000  0.61222000  0.66805000  1.0
  O  O932  1  0.08360000  0.55703000  0.70825000  1.0
  O  O933  1  0.94650000  0.49064000  0.70068000  1.0
  O  O934  1  0.21730000  0.52050000  0.79546000  1.0
  O  O935  1  0.12050000  0.52724000  0.82951000  1.0
  O  O936  1  0.76400000  0.89216000  0.48419000  1.0
  O  O937  1  0.66430000  0.99406000  0.48244000  1.0
  O  O938  1  0.64680000  0.62987000  0.50287000  1.0
  O  O939  1  0.49510000  0.59381000  0.49417000  1.0
  O  O940  1  0.19660000  0.51744000  0.15610000  1.0
  O  O941  1  0.30120000  0.61743000  0.15521000  1.0
  O  O942  1  0.04540000  0.91813000  0.15181000  1.0
  O  O943  1  0.18990000  0.88778000  0.16805000  1.0
  O  O944  1  0.91640000  0.94297000  0.20825000  1.0
  O  O945  1  0.05350000  0.00936000  0.20068000  1.0
  O  O946  1  0.78270000  0.97950000  0.29546000  1.0
  O  O947  1  0.87950000  0.97276000  0.32951000  1.0
  O  O948  1  0.23600000  0.60784000  0.98419000  1.0
  O  O949  1  0.33570000  0.50594000  0.98244000  1.0
  O  O950  1  0.35320000  0.87013000  0.00287000  1.0
  O  O951  1  0.50490000  0.90619000  0.99417000  1.0
