# generated using pymatgen
data_Zn2Mo6H8C12NO14
_symmetry_space_group_name_H-M   'P 1'
_cell_length_a   29.44360000
_cell_length_b   29.44360000
_cell_length_c   54.54300000
_cell_angle_alpha   90.00000000
_cell_angle_beta   90.00000000
_cell_angle_gamma   90.00000000
_symmetry_Int_Tables_number   1
_chemical_formula_structural   Zn2Mo6H8C12NO14
_chemical_formula_sum   'Zn64 Mo192 H256 C384 N32 O448'
_cell_volume   47284.72196230
_cell_formula_units_Z   32
loop_
 _symmetry_equiv_pos_site_id
 _symmetry_equiv_pos_as_xyz
  1  'x, y, z'
loop_
 _atom_site_type_symbol
 _atom_site_label
 _atom_site_symmetry_multiplicity
 _atom_site_fract_x
 _atom_site_fract_y
 _atom_site_fract_z
 _atom_site_occupancy
  Zn  Zn0  1  0.83976000  0.31166000  0.08474000  1.0
  Zn  Zn1  1  0.85080000  0.51438000  0.09252000  1.0
  Zn  Zn2  1  0.33976000  0.81166000  0.58474000  1.0
  Zn  Zn3  1  0.35080000  0.01438000  0.59252000  1.0
  Zn  Zn4  1  0.93834000  0.41024000  0.16526000  1.0
  Zn  Zn5  1  0.73562000  0.39920000  0.15748000  1.0
  Zn  Zn6  1  0.43834000  0.91024000  0.66526000  1.0
  Zn  Zn7  1  0.23562000  0.89920000  0.65748000  1.0
  Zn  Zn8  1  0.33976000  0.31166000  0.41526000  1.0
  Zn  Zn9  1  0.35080000  0.51438000  0.40748000  1.0
  Zn  Zn10  1  0.83976000  0.81166000  0.91526000  1.0
  Zn  Zn11  1  0.85080000  0.01438000  0.90748000  1.0
  Zn  Zn12  1  0.43834000  0.41024000  0.33474000  1.0
  Zn  Zn13  1  0.23562000  0.39920000  0.34252000  1.0
  Zn  Zn14  1  0.93834000  0.91024000  0.83474000  1.0
  Zn  Zn15  1  0.73562000  0.89920000  0.84252000  1.0
  Zn  Zn16  1  0.66024000  0.68834000  0.58474000  1.0
  Zn  Zn17  1  0.64920000  0.48562000  0.59252000  1.0
  Zn  Zn18  1  0.16024000  0.18834000  0.08474000  1.0
  Zn  Zn19  1  0.14920000  0.98562000  0.09252000  1.0
  Zn  Zn20  1  0.56166000  0.58976000  0.66526000  1.0
  Zn  Zn21  1  0.76438000  0.60080000  0.65748000  1.0
  Zn  Zn22  1  0.06166000  0.08976000  0.16526000  1.0
  Zn  Zn23  1  0.26438000  0.10080000  0.15748000  1.0
  Zn  Zn24  1  0.16024000  0.68834000  0.91526000  1.0
  Zn  Zn25  1  0.14920000  0.48562000  0.90748000  1.0
  Zn  Zn26  1  0.66024000  0.18834000  0.41526000  1.0
  Zn  Zn27  1  0.64920000  0.98562000  0.40748000  1.0
  Zn  Zn28  1  0.06166000  0.58976000  0.83474000  1.0
  Zn  Zn29  1  0.26438000  0.60080000  0.84252000  1.0
  Zn  Zn30  1  0.56166000  0.08976000  0.33474000  1.0
  Zn  Zn31  1  0.76438000  0.10080000  0.34252000  1.0
  Zn  Zn32  1  0.93834000  0.58976000  0.33474000  1.0
  Zn  Zn33  1  0.73562000  0.60080000  0.34252000  1.0
  Zn  Zn34  1  0.43834000  0.08976000  0.83474000  1.0
  Zn  Zn35  1  0.23562000  0.10080000  0.84252000  1.0
  Zn  Zn36  1  0.83976000  0.68834000  0.41526000  1.0
  Zn  Zn37  1  0.85080000  0.48562000  0.40748000  1.0
  Zn  Zn38  1  0.33976000  0.18834000  0.91526000  1.0
  Zn  Zn39  1  0.35080000  0.98562000  0.90748000  1.0
  Zn  Zn40  1  0.43834000  0.58976000  0.16526000  1.0
  Zn  Zn41  1  0.23562000  0.60080000  0.15748000  1.0
  Zn  Zn42  1  0.93834000  0.08976000  0.66526000  1.0
  Zn  Zn43  1  0.73562000  0.10080000  0.65748000  1.0
  Zn  Zn44  1  0.33976000  0.68834000  0.08474000  1.0
  Zn  Zn45  1  0.35080000  0.48562000  0.09252000  1.0
  Zn  Zn46  1  0.83976000  0.18834000  0.58474000  1.0
  Zn  Zn47  1  0.85080000  0.98562000  0.59252000  1.0
  Zn  Zn48  1  0.56166000  0.41024000  0.83474000  1.0
  Zn  Zn49  1  0.76438000  0.39920000  0.84252000  1.0
  Zn  Zn50  1  0.06166000  0.91024000  0.33474000  1.0
  Zn  Zn51  1  0.26438000  0.89920000  0.34252000  1.0
  Zn  Zn52  1  0.66024000  0.31166000  0.91526000  1.0
  Zn  Zn53  1  0.64920000  0.51438000  0.90748000  1.0
  Zn  Zn54  1  0.16024000  0.81166000  0.41526000  1.0
  Zn  Zn55  1  0.14920000  0.01438000  0.40748000  1.0
  Zn  Zn56  1  0.06166000  0.41024000  0.66526000  1.0
  Zn  Zn57  1  0.26438000  0.39920000  0.65748000  1.0
  Zn  Zn58  1  0.56166000  0.91024000  0.16526000  1.0
  Zn  Zn59  1  0.76438000  0.89920000  0.15748000  1.0
  Zn  Zn60  1  0.16024000  0.31166000  0.58474000  1.0
  Zn  Zn61  1  0.14920000  0.51438000  0.59252000  1.0
  Zn  Zn62  1  0.66024000  0.81166000  0.08474000  1.0
  Zn  Zn63  1  0.64920000  0.01438000  0.09252000  1.0
  Mo  Mo64  1  0.80364000  0.41714000  0.06031000  1.0
  Mo  Mo65  1  0.77817000  0.51159000  0.14396000  1.0
  Mo  Mo66  1  0.89314000  0.41548000  0.06292000  1.0
  Mo  Mo67  1  0.94774000  0.35011000  0.10927000  1.0
  Mo  Mo68  1  0.95346000  0.46646000  0.10960000  1.0
  Mo  Mo69  1  0.89442000  0.51558000  0.15126000  1.0
  Mo  Mo70  1  0.30364000  0.91714000  0.56031000  1.0
  Mo  Mo71  1  0.27817000  0.01159000  0.64396000  1.0
  Mo  Mo72  1  0.39314000  0.91548000  0.56292000  1.0
  Mo  Mo73  1  0.44774000  0.85011000  0.60927000  1.0
  Mo  Mo74  1  0.45346000  0.96646000  0.60960000  1.0
  Mo  Mo75  1  0.39442000  0.01558000  0.65126000  1.0
  Mo  Mo76  1  0.83286000  0.44636000  0.18969000  1.0
  Mo  Mo77  1  0.73841000  0.47183000  0.10604000  1.0
  Mo  Mo78  1  0.83452000  0.35686000  0.18708000  1.0
  Mo  Mo79  1  0.89989000  0.30226000  0.14073000  1.0
  Mo  Mo80  1  0.78354000  0.29654000  0.14040000  1.0
  Mo  Mo81  1  0.73442000  0.35558000  0.09874000  1.0
  Mo  Mo82  1  0.33286000  0.94636000  0.68969000  1.0
  Mo  Mo83  1  0.23841000  0.97183000  0.60604000  1.0
  Mo  Mo84  1  0.33452000  0.85686000  0.68708000  1.0
  Mo  Mo85  1  0.39989000  0.80226000  0.64073000  1.0
  Mo  Mo86  1  0.28354000  0.79654000  0.64040000  1.0
  Mo  Mo87  1  0.23442000  0.85558000  0.59874000  1.0
  Mo  Mo88  1  0.30364000  0.41714000  0.43969000  1.0
  Mo  Mo89  1  0.27817000  0.51159000  0.35604000  1.0
  Mo  Mo90  1  0.39314000  0.41548000  0.43708000  1.0
  Mo  Mo91  1  0.44774000  0.35011000  0.39073000  1.0
  Mo  Mo92  1  0.45346000  0.46646000  0.39040000  1.0
  Mo  Mo93  1  0.39442000  0.51558000  0.34874000  1.0
  Mo  Mo94  1  0.80364000  0.91714000  0.93969000  1.0
  Mo  Mo95  1  0.77817000  0.01159000  0.85604000  1.0
  Mo  Mo96  1  0.89314000  0.91548000  0.93708000  1.0
  Mo  Mo97  1  0.94774000  0.85011000  0.89073000  1.0
  Mo  Mo98  1  0.95346000  0.96646000  0.89040000  1.0
  Mo  Mo99  1  0.89442000  0.01558000  0.84874000  1.0
  Mo  Mo100  1  0.33286000  0.44636000  0.31031000  1.0
  Mo  Mo101  1  0.23841000  0.47183000  0.39396000  1.0
  Mo  Mo102  1  0.33452000  0.35686000  0.31292000  1.0
  Mo  Mo103  1  0.39989000  0.30226000  0.35927000  1.0
  Mo  Mo104  1  0.28354000  0.29654000  0.35960000  1.0
  Mo  Mo105  1  0.23442000  0.35558000  0.40126000  1.0
  Mo  Mo106  1  0.83286000  0.94636000  0.81031000  1.0
  Mo  Mo107  1  0.73841000  0.97183000  0.89396000  1.0
  Mo  Mo108  1  0.83452000  0.85686000  0.81292000  1.0
  Mo  Mo109  1  0.89989000  0.80226000  0.85927000  1.0
  Mo  Mo110  1  0.78354000  0.79654000  0.85960000  1.0
  Mo  Mo111  1  0.73442000  0.85558000  0.90126000  1.0
  Mo  Mo112  1  0.69636000  0.58286000  0.56031000  1.0
  Mo  Mo113  1  0.72183000  0.48841000  0.64396000  1.0
  Mo  Mo114  1  0.60686000  0.58452000  0.56292000  1.0
  Mo  Mo115  1  0.55226000  0.64989000  0.60927000  1.0
  Mo  Mo116  1  0.54654000  0.53354000  0.60960000  1.0
  Mo  Mo117  1  0.60558000  0.48442000  0.65126000  1.0
  Mo  Mo118  1  0.19636000  0.08286000  0.06031000  1.0
  Mo  Mo119  1  0.22183000  0.98841000  0.14396000  1.0
  Mo  Mo120  1  0.10686000  0.08452000  0.06292000  1.0
  Mo  Mo121  1  0.05226000  0.14989000  0.10927000  1.0
  Mo  Mo122  1  0.04654000  0.03354000  0.10960000  1.0
  Mo  Mo123  1  0.10558000  0.98442000  0.15126000  1.0
  Mo  Mo124  1  0.66714000  0.55364000  0.68969000  1.0
  Mo  Mo125  1  0.76159000  0.52817000  0.60604000  1.0
  Mo  Mo126  1  0.66548000  0.64314000  0.68708000  1.0
  Mo  Mo127  1  0.60011000  0.69774000  0.64073000  1.0
  Mo  Mo128  1  0.71646000  0.70346000  0.64040000  1.0
  Mo  Mo129  1  0.76558000  0.64442000  0.59874000  1.0
  Mo  Mo130  1  0.16714000  0.05364000  0.18969000  1.0
  Mo  Mo131  1  0.26159000  0.02817000  0.10604000  1.0
  Mo  Mo132  1  0.16548000  0.14314000  0.18708000  1.0
  Mo  Mo133  1  0.10011000  0.19774000  0.14073000  1.0
  Mo  Mo134  1  0.21646000  0.20346000  0.14040000  1.0
  Mo  Mo135  1  0.26558000  0.14442000  0.09874000  1.0
  Mo  Mo136  1  0.19636000  0.58286000  0.93969000  1.0
  Mo  Mo137  1  0.22183000  0.48841000  0.85604000  1.0
  Mo  Mo138  1  0.10686000  0.58452000  0.93708000  1.0
  Mo  Mo139  1  0.05226000  0.64989000  0.89073000  1.0
  Mo  Mo140  1  0.04654000  0.53354000  0.89040000  1.0
  Mo  Mo141  1  0.10558000  0.48442000  0.84874000  1.0
  Mo  Mo142  1  0.69636000  0.08286000  0.43969000  1.0
  Mo  Mo143  1  0.72183000  0.98841000  0.35604000  1.0
  Mo  Mo144  1  0.60686000  0.08452000  0.43708000  1.0
  Mo  Mo145  1  0.55226000  0.14989000  0.39073000  1.0
  Mo  Mo146  1  0.54654000  0.03354000  0.39040000  1.0
  Mo  Mo147  1  0.60558000  0.98442000  0.34874000  1.0
  Mo  Mo148  1  0.16714000  0.55364000  0.81031000  1.0
  Mo  Mo149  1  0.26159000  0.52817000  0.89396000  1.0
  Mo  Mo150  1  0.16548000  0.64314000  0.81292000  1.0
  Mo  Mo151  1  0.10011000  0.69774000  0.85927000  1.0
  Mo  Mo152  1  0.21646000  0.70346000  0.85960000  1.0
  Mo  Mo153  1  0.26558000  0.64442000  0.90126000  1.0
  Mo  Mo154  1  0.66714000  0.05364000  0.31031000  1.0
  Mo  Mo155  1  0.76159000  0.02817000  0.39396000  1.0
  Mo  Mo156  1  0.66548000  0.14314000  0.31292000  1.0
  Mo  Mo157  1  0.60011000  0.19774000  0.35927000  1.0
  Mo  Mo158  1  0.71646000  0.20346000  0.35960000  1.0
  Mo  Mo159  1  0.76558000  0.14442000  0.40126000  1.0
  Mo  Mo160  1  0.83286000  0.55364000  0.31031000  1.0
  Mo  Mo161  1  0.73841000  0.52817000  0.39396000  1.0
  Mo  Mo162  1  0.83452000  0.64314000  0.31292000  1.0
  Mo  Mo163  1  0.89989000  0.69774000  0.35927000  1.0
  Mo  Mo164  1  0.78354000  0.70346000  0.35960000  1.0
  Mo  Mo165  1  0.73442000  0.64442000  0.40126000  1.0
  Mo  Mo166  1  0.33286000  0.05364000  0.81031000  1.0
  Mo  Mo167  1  0.23841000  0.02817000  0.89396000  1.0
  Mo  Mo168  1  0.33452000  0.14314000  0.81292000  1.0
  Mo  Mo169  1  0.39989000  0.19774000  0.85927000  1.0
  Mo  Mo170  1  0.28354000  0.20346000  0.85960000  1.0
  Mo  Mo171  1  0.23442000  0.14442000  0.90126000  1.0
  Mo  Mo172  1  0.80364000  0.58286000  0.43969000  1.0
  Mo  Mo173  1  0.77817000  0.48841000  0.35604000  1.0
  Mo  Mo174  1  0.89314000  0.58452000  0.43708000  1.0
  Mo  Mo175  1  0.94774000  0.64989000  0.39073000  1.0
  Mo  Mo176  1  0.95346000  0.53354000  0.39040000  1.0
  Mo  Mo177  1  0.89442000  0.48442000  0.34874000  1.0
  Mo  Mo178  1  0.30364000  0.08286000  0.93969000  1.0
  Mo  Mo179  1  0.27817000  0.98841000  0.85604000  1.0
  Mo  Mo180  1  0.39314000  0.08452000  0.93708000  1.0
  Mo  Mo181  1  0.44774000  0.14989000  0.89073000  1.0
  Mo  Mo182  1  0.45346000  0.03354000  0.89040000  1.0
  Mo  Mo183  1  0.39442000  0.98442000  0.84874000  1.0
  Mo  Mo184  1  0.33286000  0.55364000  0.18969000  1.0
  Mo  Mo185  1  0.23841000  0.52817000  0.10604000  1.0
  Mo  Mo186  1  0.33452000  0.64314000  0.18708000  1.0
  Mo  Mo187  1  0.39989000  0.69774000  0.14073000  1.0
  Mo  Mo188  1  0.28354000  0.70346000  0.14040000  1.0
  Mo  Mo189  1  0.23442000  0.64442000  0.09874000  1.0
  Mo  Mo190  1  0.83286000  0.05364000  0.68969000  1.0
  Mo  Mo191  1  0.73841000  0.02817000  0.60604000  1.0
  Mo  Mo192  1  0.83452000  0.14314000  0.68708000  1.0
  Mo  Mo193  1  0.89989000  0.19774000  0.64073000  1.0
  Mo  Mo194  1  0.78354000  0.20346000  0.64040000  1.0
  Mo  Mo195  1  0.73442000  0.14442000  0.59874000  1.0
  Mo  Mo196  1  0.30364000  0.58286000  0.06031000  1.0
  Mo  Mo197  1  0.27817000  0.48841000  0.14396000  1.0
  Mo  Mo198  1  0.39314000  0.58452000  0.06292000  1.0
  Mo  Mo199  1  0.44774000  0.64989000  0.10927000  1.0
  Mo  Mo200  1  0.45346000  0.53354000  0.10960000  1.0
  Mo  Mo201  1  0.39442000  0.48442000  0.15126000  1.0
  Mo  Mo202  1  0.80364000  0.08286000  0.56031000  1.0
  Mo  Mo203  1  0.77817000  0.98841000  0.64396000  1.0
  Mo  Mo204  1  0.89314000  0.08452000  0.56292000  1.0
  Mo  Mo205  1  0.94774000  0.14989000  0.60927000  1.0
  Mo  Mo206  1  0.95346000  0.03354000  0.60960000  1.0
  Mo  Mo207  1  0.89442000  0.98442000  0.65126000  1.0
  Mo  Mo208  1  0.66714000  0.44636000  0.81031000  1.0
  Mo  Mo209  1  0.76159000  0.47183000  0.89396000  1.0
  Mo  Mo210  1  0.66548000  0.35686000  0.81292000  1.0
  Mo  Mo211  1  0.60011000  0.30226000  0.85927000  1.0
  Mo  Mo212  1  0.71646000  0.29654000  0.85960000  1.0
  Mo  Mo213  1  0.76558000  0.35558000  0.90126000  1.0
  Mo  Mo214  1  0.16714000  0.94636000  0.31031000  1.0
  Mo  Mo215  1  0.26159000  0.97183000  0.39396000  1.0
  Mo  Mo216  1  0.16548000  0.85686000  0.31292000  1.0
  Mo  Mo217  1  0.10011000  0.80226000  0.35927000  1.0
  Mo  Mo218  1  0.21646000  0.79654000  0.35960000  1.0
  Mo  Mo219  1  0.26558000  0.85558000  0.40126000  1.0
  Mo  Mo220  1  0.69636000  0.41714000  0.93969000  1.0
  Mo  Mo221  1  0.72183000  0.51159000  0.85604000  1.0
  Mo  Mo222  1  0.60686000  0.41548000  0.93708000  1.0
  Mo  Mo223  1  0.55226000  0.35011000  0.89073000  1.0
  Mo  Mo224  1  0.54654000  0.46646000  0.89040000  1.0
  Mo  Mo225  1  0.60558000  0.51558000  0.84874000  1.0
  Mo  Mo226  1  0.19636000  0.91714000  0.43969000  1.0
  Mo  Mo227  1  0.22183000  0.01159000  0.35604000  1.0
  Mo  Mo228  1  0.10686000  0.91548000  0.43708000  1.0
  Mo  Mo229  1  0.05226000  0.85011000  0.39073000  1.0
  Mo  Mo230  1  0.04654000  0.96646000  0.39040000  1.0
  Mo  Mo231  1  0.10558000  0.01558000  0.34874000  1.0
  Mo  Mo232  1  0.16714000  0.44636000  0.68969000  1.0
  Mo  Mo233  1  0.26159000  0.47183000  0.60604000  1.0
  Mo  Mo234  1  0.16548000  0.35686000  0.68708000  1.0
  Mo  Mo235  1  0.10011000  0.30226000  0.64073000  1.0
  Mo  Mo236  1  0.21646000  0.29654000  0.64040000  1.0
  Mo  Mo237  1  0.26558000  0.35558000  0.59874000  1.0
  Mo  Mo238  1  0.66714000  0.94636000  0.18969000  1.0
  Mo  Mo239  1  0.76159000  0.97183000  0.10604000  1.0
  Mo  Mo240  1  0.66548000  0.85686000  0.18708000  1.0
  Mo  Mo241  1  0.60011000  0.80226000  0.14073000  1.0
  Mo  Mo242  1  0.71646000  0.79654000  0.14040000  1.0
  Mo  Mo243  1  0.76558000  0.85558000  0.09874000  1.0
  Mo  Mo244  1  0.19636000  0.41714000  0.56031000  1.0
  Mo  Mo245  1  0.22183000  0.51159000  0.64396000  1.0
  Mo  Mo246  1  0.10686000  0.41548000  0.56292000  1.0
  Mo  Mo247  1  0.05226000  0.35011000  0.60927000  1.0
  Mo  Mo248  1  0.04654000  0.46646000  0.60960000  1.0
  Mo  Mo249  1  0.10558000  0.51558000  0.65126000  1.0
  Mo  Mo250  1  0.69636000  0.91714000  0.06031000  1.0
  Mo  Mo251  1  0.72183000  0.01159000  0.14396000  1.0
  Mo  Mo252  1  0.60686000  0.91548000  0.06292000  1.0
  Mo  Mo253  1  0.55226000  0.85011000  0.10927000  1.0
  Mo  Mo254  1  0.54654000  0.96646000  0.10960000  1.0
  Mo  Mo255  1  0.60558000  0.01558000  0.15126000  1.0
  H  H256  1  0.80710000  0.21280000  0.03060000  1.0
  H  H257  1  0.80400000  0.15340000  0.00090000  1.0
  H  H258  1  0.80650000  0.10050000  0.97910000  1.0
  H  H259  1  0.80150000  0.04520000  0.94690000  1.0
  H  H260  1  0.93640000  0.22920000  0.01570000  1.0
  H  H261  1  0.90320000  0.15840000  0.94500000  1.0
  H  H262  1  0.90040000  0.10050000  0.91490000  1.0
  H  H263  1  0.92680000  0.18420000  0.98030000  1.0
  H  H264  1  0.30710000  0.71280000  0.53060000  1.0
  H  H265  1  0.30400000  0.65340000  0.50090000  1.0
  H  H266  1  0.30650000  0.60050000  0.47910000  1.0
  H  H267  1  0.30150000  0.54520000  0.44690000  1.0
  H  H268  1  0.43640000  0.72920000  0.51570000  1.0
  H  H269  1  0.40320000  0.65840000  0.44500000  1.0
  H  H270  1  0.40040000  0.60050000  0.41490000  1.0
  H  H271  1  0.42680000  0.68420000  0.48030000  1.0
  H  H272  1  0.03720000  0.44290000  0.21940000  1.0
  H  H273  1  0.09660000  0.44600000  0.24910000  1.0
  H  H274  1  0.14950000  0.44350000  0.27090000  1.0
  H  H275  1  0.20480000  0.44850000  0.30310000  1.0
  H  H276  1  0.02080000  0.31360000  0.23430000  1.0
  H  H277  1  0.09160000  0.34680000  0.30500000  1.0
  H  H278  1  0.14950000  0.34960000  0.33510000  1.0
  H  H279  1  0.06580000  0.32320000  0.26970000  1.0
  H  H280  1  0.53720000  0.94290000  0.71940000  1.0
  H  H281  1  0.59660000  0.94600000  0.74910000  1.0
  H  H282  1  0.64950000  0.94350000  0.77090000  1.0
  H  H283  1  0.70480000  0.94850000  0.80310000  1.0
  H  H284  1  0.52080000  0.81360000  0.73430000  1.0
  H  H285  1  0.59160000  0.84680000  0.80500000  1.0
  H  H286  1  0.64950000  0.84960000  0.83510000  1.0
  H  H287  1  0.56580000  0.82320000  0.76970000  1.0
  H  H288  1  0.30710000  0.21280000  0.46940000  1.0
  H  H289  1  0.30400000  0.15340000  0.49910000  1.0
  H  H290  1  0.30650000  0.10050000  0.52090000  1.0
  H  H291  1  0.30150000  0.04520000  0.55310000  1.0
  H  H292  1  0.43640000  0.22920000  0.48430000  1.0
  H  H293  1  0.40320000  0.15840000  0.55500000  1.0
  H  H294  1  0.40040000  0.10050000  0.58510000  1.0
  H  H295  1  0.42680000  0.18420000  0.51970000  1.0
  H  H296  1  0.80710000  0.71280000  0.96940000  1.0
  H  H297  1  0.80400000  0.65340000  0.99910000  1.0
  H  H298  1  0.80650000  0.60050000  0.02090000  1.0
  H  H299  1  0.80150000  0.54520000  0.05310000  1.0
  H  H300  1  0.93640000  0.72920000  0.98430000  1.0
  H  H301  1  0.90320000  0.65840000  0.05500000  1.0
  H  H302  1  0.90040000  0.60050000  0.08510000  1.0
  H  H303  1  0.92680000  0.68420000  0.01970000  1.0
  H  H304  1  0.53720000  0.44290000  0.28060000  1.0
  H  H305  1  0.59660000  0.44600000  0.25090000  1.0
  H  H306  1  0.64950000  0.44350000  0.22910000  1.0
  H  H307  1  0.70480000  0.44850000  0.19690000  1.0
  H  H308  1  0.52080000  0.31360000  0.26570000  1.0
  H  H309  1  0.59160000  0.34680000  0.19500000  1.0
  H  H310  1  0.64950000  0.34960000  0.16490000  1.0
  H  H311  1  0.56580000  0.32320000  0.23030000  1.0
  H  H312  1  0.03720000  0.94290000  0.78060000  1.0
  H  H313  1  0.09660000  0.94600000  0.75090000  1.0
  H  H314  1  0.14950000  0.94350000  0.72910000  1.0
  H  H315  1  0.20480000  0.94850000  0.69690000  1.0
  H  H316  1  0.02080000  0.81360000  0.76570000  1.0
  H  H317  1  0.09160000  0.84680000  0.69500000  1.0
  H  H318  1  0.14950000  0.84960000  0.66490000  1.0
  H  H319  1  0.06580000  0.82320000  0.73030000  1.0
  H  H320  1  0.69290000  0.78720000  0.53060000  1.0
  H  H321  1  0.69600000  0.84660000  0.50090000  1.0
  H  H322  1  0.69350000  0.89950000  0.47910000  1.0
  H  H323  1  0.69850000  0.95480000  0.44690000  1.0
  H  H324  1  0.56360000  0.77080000  0.51570000  1.0
  H  H325  1  0.59680000  0.84160000  0.44500000  1.0
  H  H326  1  0.59960000  0.89950000  0.41490000  1.0
  H  H327  1  0.57320000  0.81580000  0.48030000  1.0
  H  H328  1  0.19290000  0.28720000  0.03060000  1.0
  H  H329  1  0.19600000  0.34660000  0.00090000  1.0
  H  H330  1  0.19350000  0.39950000  0.97910000  1.0
  H  H331  1  0.19850000  0.45480000  0.94690000  1.0
  H  H332  1  0.06360000  0.27080000  0.01570000  1.0
  H  H333  1  0.09680000  0.34160000  0.94500000  1.0
  H  H334  1  0.09960000  0.39950000  0.91490000  1.0
  H  H335  1  0.07320000  0.31580000  0.98030000  1.0
  H  H336  1  0.46280000  0.55710000  0.71940000  1.0
  H  H337  1  0.40340000  0.55400000  0.74910000  1.0
  H  H338  1  0.35050000  0.55650000  0.77090000  1.0
  H  H339  1  0.29520000  0.55150000  0.80310000  1.0
  H  H340  1  0.47920000  0.68640000  0.73430000  1.0
  H  H341  1  0.40840000  0.65320000  0.80500000  1.0
  H  H342  1  0.35050000  0.65040000  0.83510000  1.0
  H  H343  1  0.43420000  0.67680000  0.76970000  1.0
  H  H344  1  0.96280000  0.05710000  0.21940000  1.0
  H  H345  1  0.90340000  0.05400000  0.24910000  1.0
  H  H346  1  0.85050000  0.05650000  0.27090000  1.0
  H  H347  1  0.79520000  0.05150000  0.30310000  1.0
  H  H348  1  0.97920000  0.18640000  0.23430000  1.0
  H  H349  1  0.90840000  0.15320000  0.30500000  1.0
  H  H350  1  0.85050000  0.15040000  0.33510000  1.0
  H  H351  1  0.93420000  0.17680000  0.26970000  1.0
  H  H352  1  0.19290000  0.78720000  0.96940000  1.0
  H  H353  1  0.19600000  0.84660000  0.99910000  1.0
  H  H354  1  0.19350000  0.89950000  0.02090000  1.0
  H  H355  1  0.19850000  0.95480000  0.05310000  1.0
  H  H356  1  0.06360000  0.77080000  0.98430000  1.0
  H  H357  1  0.09680000  0.84160000  0.05500000  1.0
  H  H358  1  0.09960000  0.89950000  0.08510000  1.0
  H  H359  1  0.07320000  0.81580000  0.01970000  1.0
  H  H360  1  0.69290000  0.28720000  0.46940000  1.0
  H  H361  1  0.69600000  0.34660000  0.49910000  1.0
  H  H362  1  0.69350000  0.39950000  0.52090000  1.0
  H  H363  1  0.69850000  0.45480000  0.55310000  1.0
  H  H364  1  0.56360000  0.27080000  0.48430000  1.0
  H  H365  1  0.59680000  0.34160000  0.55500000  1.0
  H  H366  1  0.59960000  0.39950000  0.58510000  1.0
  H  H367  1  0.57320000  0.31580000  0.51970000  1.0
  H  H368  1  0.96280000  0.55710000  0.78060000  1.0
  H  H369  1  0.90340000  0.55400000  0.75090000  1.0
  H  H370  1  0.85050000  0.55650000  0.72910000  1.0
  H  H371  1  0.79520000  0.55150000  0.69690000  1.0
  H  H372  1  0.97920000  0.68640000  0.76570000  1.0
  H  H373  1  0.90840000  0.65320000  0.69500000  1.0
  H  H374  1  0.85050000  0.65040000  0.66490000  1.0
  H  H375  1  0.93420000  0.67680000  0.73030000  1.0
  H  H376  1  0.46280000  0.05710000  0.28060000  1.0
  H  H377  1  0.40340000  0.05400000  0.25090000  1.0
  H  H378  1  0.35050000  0.05650000  0.22910000  1.0
  H  H379  1  0.29520000  0.05150000  0.19690000  1.0
  H  H380  1  0.47920000  0.18640000  0.26570000  1.0
  H  H381  1  0.40840000  0.15320000  0.19500000  1.0
  H  H382  1  0.35050000  0.15040000  0.16490000  1.0
  H  H383  1  0.43420000  0.17680000  0.23030000  1.0
  H  H384  1  0.03720000  0.55710000  0.28060000  1.0
  H  H385  1  0.09660000  0.55400000  0.25090000  1.0
  H  H386  1  0.14950000  0.55650000  0.22910000  1.0
  H  H387  1  0.20480000  0.55150000  0.19690000  1.0
  H  H388  1  0.02080000  0.68640000  0.26570000  1.0
  H  H389  1  0.09160000  0.65320000  0.19500000  1.0
  H  H390  1  0.14950000  0.65040000  0.16490000  1.0
  H  H391  1  0.06580000  0.67680000  0.23030000  1.0
  H  H392  1  0.53720000  0.05710000  0.78060000  1.0
  H  H393  1  0.59660000  0.05400000  0.75090000  1.0
  H  H394  1  0.64950000  0.05650000  0.72910000  1.0
  H  H395  1  0.70480000  0.05150000  0.69690000  1.0
  H  H396  1  0.52080000  0.18640000  0.76570000  1.0
  H  H397  1  0.59160000  0.15320000  0.69500000  1.0
  H  H398  1  0.64950000  0.15040000  0.66490000  1.0
  H  H399  1  0.56580000  0.17680000  0.73030000  1.0
  H  H400  1  0.80710000  0.78720000  0.46940000  1.0
  H  H401  1  0.80400000  0.84660000  0.49910000  1.0
  H  H402  1  0.80650000  0.89950000  0.52090000  1.0
  H  H403  1  0.80150000  0.95480000  0.55310000  1.0
  H  H404  1  0.93640000  0.77080000  0.48430000  1.0
  H  H405  1  0.90320000  0.84160000  0.55500000  1.0
  H  H406  1  0.90040000  0.89950000  0.58510000  1.0
  H  H407  1  0.92680000  0.81580000  0.51970000  1.0
  H  H408  1  0.30710000  0.28720000  0.96940000  1.0
  H  H409  1  0.30400000  0.34660000  0.99910000  1.0
  H  H410  1  0.30650000  0.39950000  0.02090000  1.0
  H  H411  1  0.30150000  0.45480000  0.05310000  1.0
  H  H412  1  0.43640000  0.27080000  0.98430000  1.0
  H  H413  1  0.40320000  0.34160000  0.05500000  1.0
  H  H414  1  0.40040000  0.39950000  0.08510000  1.0
  H  H415  1  0.42680000  0.31580000  0.01970000  1.0
  H  H416  1  0.53720000  0.55710000  0.21940000  1.0
  H  H417  1  0.59660000  0.55400000  0.24910000  1.0
  H  H418  1  0.64950000  0.55650000  0.27090000  1.0
  H  H419  1  0.70480000  0.55150000  0.30310000  1.0
  H  H420  1  0.52080000  0.68640000  0.23430000  1.0
  H  H421  1  0.59160000  0.65320000  0.30500000  1.0
  H  H422  1  0.64950000  0.65040000  0.33510000  1.0
  H  H423  1  0.56580000  0.67680000  0.26970000  1.0
  H  H424  1  0.03720000  0.05710000  0.71940000  1.0
  H  H425  1  0.09660000  0.05400000  0.74910000  1.0
  H  H426  1  0.14950000  0.05650000  0.77090000  1.0
  H  H427  1  0.20480000  0.05150000  0.80310000  1.0
  H  H428  1  0.02080000  0.18640000  0.73430000  1.0
  H  H429  1  0.09160000  0.15320000  0.80500000  1.0
  H  H430  1  0.14950000  0.15040000  0.83510000  1.0
  H  H431  1  0.06580000  0.17680000  0.76970000  1.0
  H  H432  1  0.30710000  0.78720000  0.03060000  1.0
  H  H433  1  0.30400000  0.84660000  0.00090000  1.0
  H  H434  1  0.30650000  0.89950000  0.97910000  1.0
  H  H435  1  0.30150000  0.95480000  0.94690000  1.0
  H  H436  1  0.43640000  0.77080000  0.01570000  1.0
  H  H437  1  0.40320000  0.84160000  0.94500000  1.0
  H  H438  1  0.40040000  0.89950000  0.91490000  1.0
  H  H439  1  0.42680000  0.81580000  0.98030000  1.0
  H  H440  1  0.80710000  0.28720000  0.53060000  1.0
  H  H441  1  0.80400000  0.34660000  0.50090000  1.0
  H  H442  1  0.80650000  0.39950000  0.47910000  1.0
  H  H443  1  0.80150000  0.45480000  0.44690000  1.0
  H  H444  1  0.93640000  0.27080000  0.51570000  1.0
  H  H445  1  0.90320000  0.34160000  0.44500000  1.0
  H  H446  1  0.90040000  0.39950000  0.41490000  1.0
  H  H447  1  0.92680000  0.31580000  0.48030000  1.0
  H  H448  1  0.46280000  0.44290000  0.78060000  1.0
  H  H449  1  0.40340000  0.44600000  0.75090000  1.0
  H  H450  1  0.35050000  0.44350000  0.72910000  1.0
  H  H451  1  0.29520000  0.44850000  0.69690000  1.0
  H  H452  1  0.47920000  0.31360000  0.76570000  1.0
  H  H453  1  0.40840000  0.34680000  0.69500000  1.0
  H  H454  1  0.35050000  0.34960000  0.66490000  1.0
  H  H455  1  0.43420000  0.32320000  0.73030000  1.0
  H  H456  1  0.96280000  0.94290000  0.28060000  1.0
  H  H457  1  0.90340000  0.94600000  0.25090000  1.0
  H  H458  1  0.85050000  0.94350000  0.22910000  1.0
  H  H459  1  0.79520000  0.94850000  0.19690000  1.0
  H  H460  1  0.97920000  0.81360000  0.26570000  1.0
  H  H461  1  0.90840000  0.84680000  0.19500000  1.0
  H  H462  1  0.85050000  0.84960000  0.16490000  1.0
  H  H463  1  0.93420000  0.82320000  0.23030000  1.0
  H  H464  1  0.69290000  0.21280000  0.96940000  1.0
  H  H465  1  0.69600000  0.15340000  0.99910000  1.0
  H  H466  1  0.69350000  0.10050000  0.02090000  1.0
  H  H467  1  0.69850000  0.04520000  0.05310000  1.0
  H  H468  1  0.56360000  0.22920000  0.98430000  1.0
  H  H469  1  0.59680000  0.15840000  0.05500000  1.0
  H  H470  1  0.59960000  0.10050000  0.08510000  1.0
  H  H471  1  0.57320000  0.18420000  0.01970000  1.0
  H  H472  1  0.19290000  0.71280000  0.46940000  1.0
  H  H473  1  0.19600000  0.65340000  0.49910000  1.0
  H  H474  1  0.19350000  0.60050000  0.52090000  1.0
  H  H475  1  0.19850000  0.54520000  0.55310000  1.0
  H  H476  1  0.06360000  0.72920000  0.48430000  1.0
  H  H477  1  0.09680000  0.65840000  0.55500000  1.0
  H  H478  1  0.09960000  0.60050000  0.58510000  1.0
  H  H479  1  0.07320000  0.68420000  0.51970000  1.0
  H  H480  1  0.96280000  0.44290000  0.71940000  1.0
  H  H481  1  0.90340000  0.44600000  0.74910000  1.0
  H  H482  1  0.85050000  0.44350000  0.77090000  1.0
  H  H483  1  0.79520000  0.44850000  0.80310000  1.0
  H  H484  1  0.97920000  0.31360000  0.73430000  1.0
  H  H485  1  0.90840000  0.34680000  0.80500000  1.0
  H  H486  1  0.85050000  0.34960000  0.83510000  1.0
  H  H487  1  0.93420000  0.32320000  0.76970000  1.0
  H  H488  1  0.46280000  0.94290000  0.21940000  1.0
  H  H489  1  0.40340000  0.94600000  0.24910000  1.0
  H  H490  1  0.35050000  0.94350000  0.27090000  1.0
  H  H491  1  0.29520000  0.94850000  0.30310000  1.0
  H  H492  1  0.47920000  0.81360000  0.23430000  1.0
  H  H493  1  0.40840000  0.84680000  0.30500000  1.0
  H  H494  1  0.35050000  0.84960000  0.33510000  1.0
  H  H495  1  0.43420000  0.82320000  0.26970000  1.0
  H  H496  1  0.19290000  0.21280000  0.53060000  1.0
  H  H497  1  0.19600000  0.15340000  0.50090000  1.0
  H  H498  1  0.19350000  0.10050000  0.47910000  1.0
  H  H499  1  0.19850000  0.04520000  0.44690000  1.0
  H  H500  1  0.06360000  0.22920000  0.51570000  1.0
  H  H501  1  0.09680000  0.15840000  0.44500000  1.0
  H  H502  1  0.09960000  0.10050000  0.41490000  1.0
  H  H503  1  0.07320000  0.18420000  0.48030000  1.0
  H  H504  1  0.69290000  0.71280000  0.03060000  1.0
  H  H505  1  0.69600000  0.65340000  0.00090000  1.0
  H  H506  1  0.69350000  0.60050000  0.97910000  1.0
  H  H507  1  0.69850000  0.54520000  0.94690000  1.0
  H  H508  1  0.56360000  0.72920000  0.01570000  1.0
  H  H509  1  0.59680000  0.65840000  0.94500000  1.0
  H  H510  1  0.59960000  0.60050000  0.91490000  1.0
  H  H511  1  0.57320000  0.68420000  0.98030000  1.0
  C  C512  1  0.87310000  0.22260000  0.02810000  1.0
  C  C513  1  0.83320000  0.20410000  0.02220000  1.0
  C  C514  1  0.87550000  0.25670000  0.04830000  1.0
  C  C515  1  0.86160000  0.13200000  0.96720000  1.0
  C  C516  1  0.83030000  0.17060000  0.00270000  1.0
  C  C517  1  0.86620000  0.16420000  0.98710000  1.0
  C  C518  1  0.82810000  0.10060000  0.96660000  1.0
  C  C519  1  0.82470000  0.06670000  0.94690000  1.0
  C  C520  1  0.90850000  0.21550000  0.01260000  1.0
  C  C521  1  0.88400000  0.13380000  0.94750000  1.0
  C  C522  1  0.88120000  0.09850000  0.92840000  1.0
  C  C523  1  0.90280000  0.18670000  0.99140000  1.0
  C  C524  1  0.37310000  0.72260000  0.52810000  1.0
  C  C525  1  0.33320000  0.70410000  0.52220000  1.0
  C  C526  1  0.37550000  0.75670000  0.54830000  1.0
  C  C527  1  0.36160000  0.63200000  0.46720000  1.0
  C  C528  1  0.33030000  0.67060000  0.50270000  1.0
  C  C529  1  0.36620000  0.66420000  0.48710000  1.0
  C  C530  1  0.32810000  0.60060000  0.46660000  1.0
  C  C531  1  0.32470000  0.56670000  0.44690000  1.0
  C  C532  1  0.40850000  0.71550000  0.51260000  1.0
  C  C533  1  0.38400000  0.63380000  0.44750000  1.0
  C  C534  1  0.38120000  0.59850000  0.42840000  1.0
  C  C535  1  0.40280000  0.68670000  0.49140000  1.0
  C  C536  1  0.02740000  0.37690000  0.22190000  1.0
  C  C537  1  0.04590000  0.41680000  0.22780000  1.0
  C  C538  1  0.99330000  0.37450000  0.20170000  1.0
  C  C539  1  0.11800000  0.38840000  0.28280000  1.0
  C  C540  1  0.07940000  0.41970000  0.24730000  1.0
  C  C541  1  0.08580000  0.38380000  0.26290000  1.0
  C  C542  1  0.14940000  0.42190000  0.28340000  1.0
  C  C543  1  0.18330000  0.42530000  0.30310000  1.0
  C  C544  1  0.03450000  0.34150000  0.23740000  1.0
  C  C545  1  0.11620000  0.36600000  0.30250000  1.0
  C  C546  1  0.15150000  0.36880000  0.32160000  1.0
  C  C547  1  0.06330000  0.34720000  0.25860000  1.0
  C  C548  1  0.52740000  0.87690000  0.72190000  1.0
  C  C549  1  0.54590000  0.91680000  0.72780000  1.0
  C  C550  1  0.49330000  0.87450000  0.70170000  1.0
  C  C551  1  0.61800000  0.88840000  0.78280000  1.0
  C  C552  1  0.57940000  0.91970000  0.74730000  1.0
  C  C553  1  0.58580000  0.88380000  0.76290000  1.0
  C  C554  1  0.64940000  0.92190000  0.78340000  1.0
  C  C555  1  0.68330000  0.92530000  0.80310000  1.0
  C  C556  1  0.53450000  0.84150000  0.73740000  1.0
  C  C557  1  0.61620000  0.86600000  0.80250000  1.0
  C  C558  1  0.65150000  0.86880000  0.82160000  1.0
  C  C559  1  0.56330000  0.84720000  0.75860000  1.0
  C  C560  1  0.37310000  0.22260000  0.47190000  1.0
  C  C561  1  0.33320000  0.20410000  0.47780000  1.0
  C  C562  1  0.37550000  0.25670000  0.45170000  1.0
  C  C563  1  0.36160000  0.13200000  0.53280000  1.0
  C  C564  1  0.33030000  0.17060000  0.49730000  1.0
  C  C565  1  0.36620000  0.16420000  0.51290000  1.0
  C  C566  1  0.32810000  0.10060000  0.53340000  1.0
  C  C567  1  0.32470000  0.06670000  0.55310000  1.0
  C  C568  1  0.40850000  0.21550000  0.48740000  1.0
  C  C569  1  0.38400000  0.13380000  0.55250000  1.0
  C  C570  1  0.38120000  0.09850000  0.57160000  1.0
  C  C571  1  0.40280000  0.18670000  0.50860000  1.0
  C  C572  1  0.87310000  0.72260000  0.97190000  1.0
  C  C573  1  0.83320000  0.70410000  0.97780000  1.0
  C  C574  1  0.87550000  0.75670000  0.95170000  1.0
  C  C575  1  0.86160000  0.63200000  0.03280000  1.0
  C  C576  1  0.83030000  0.67060000  0.99730000  1.0
  C  C577  1  0.86620000  0.66420000  0.01290000  1.0
  C  C578  1  0.82810000  0.60060000  0.03340000  1.0
  C  C579  1  0.82470000  0.56670000  0.05310000  1.0
  C  C580  1  0.90850000  0.71550000  0.98740000  1.0
  C  C581  1  0.88400000  0.63380000  0.05250000  1.0
  C  C582  1  0.88120000  0.59850000  0.07160000  1.0
  C  C583  1  0.90280000  0.68670000  0.00860000  1.0
  C  C584  1  0.52740000  0.37690000  0.27810000  1.0
  C  C585  1  0.54590000  0.41680000  0.27220000  1.0
  C  C586  1  0.49330000  0.37450000  0.29830000  1.0
  C  C587  1  0.61800000  0.38840000  0.21720000  1.0
  C  C588  1  0.57940000  0.41970000  0.25270000  1.0
  C  C589  1  0.58580000  0.38380000  0.23710000  1.0
  C  C590  1  0.64940000  0.42190000  0.21660000  1.0
  C  C591  1  0.68330000  0.42530000  0.19690000  1.0
  C  C592  1  0.53450000  0.34150000  0.26260000  1.0
  C  C593  1  0.61620000  0.36600000  0.19750000  1.0
  C  C594  1  0.65150000  0.36880000  0.17840000  1.0
  C  C595  1  0.56330000  0.34720000  0.24140000  1.0
  C  C596  1  0.02740000  0.87690000  0.77810000  1.0
  C  C597  1  0.04590000  0.91680000  0.77220000  1.0
  C  C598  1  0.99330000  0.87450000  0.79830000  1.0
  C  C599  1  0.11800000  0.88840000  0.71720000  1.0
  C  C600  1  0.07940000  0.91970000  0.75270000  1.0
  C  C601  1  0.08580000  0.88380000  0.73710000  1.0
  C  C602  1  0.14940000  0.92190000  0.71660000  1.0
  C  C603  1  0.18330000  0.92530000  0.69690000  1.0
  C  C604  1  0.03450000  0.84150000  0.76260000  1.0
  C  C605  1  0.11620000  0.86600000  0.69750000  1.0
  C  C606  1  0.15150000  0.86880000  0.67840000  1.0
  C  C607  1  0.06330000  0.84720000  0.74140000  1.0
  C  C608  1  0.62690000  0.77740000  0.52810000  1.0
  C  C609  1  0.66680000  0.79590000  0.52220000  1.0
  C  C610  1  0.62450000  0.74330000  0.54830000  1.0
  C  C611  1  0.63840000  0.86800000  0.46720000  1.0
  C  C612  1  0.66970000  0.82940000  0.50270000  1.0
  C  C613  1  0.63380000  0.83580000  0.48710000  1.0
  C  C614  1  0.67190000  0.89940000  0.46660000  1.0
  C  C615  1  0.67530000  0.93330000  0.44690000  1.0
  C  C616  1  0.59150000  0.78450000  0.51260000  1.0
  C  C617  1  0.61600000  0.86620000  0.44750000  1.0
  C  C618  1  0.61880000  0.90150000  0.42840000  1.0
  C  C619  1  0.59720000  0.81330000  0.49140000  1.0
  C  C620  1  0.12690000  0.27740000  0.02810000  1.0
  C  C621  1  0.16680000  0.29590000  0.02220000  1.0
  C  C622  1  0.12450000  0.24330000  0.04830000  1.0
  C  C623  1  0.13840000  0.36800000  0.96720000  1.0
  C  C624  1  0.16970000  0.32940000  0.00270000  1.0
  C  C625  1  0.13380000  0.33580000  0.98710000  1.0
  C  C626  1  0.17190000  0.39940000  0.96660000  1.0
  C  C627  1  0.17530000  0.43330000  0.94690000  1.0
  C  C628  1  0.09150000  0.28450000  0.01260000  1.0
  C  C629  1  0.11600000  0.36620000  0.94750000  1.0
  C  C630  1  0.11880000  0.40150000  0.92840000  1.0
  C  C631  1  0.09720000  0.31330000  0.99140000  1.0
  C  C632  1  0.47260000  0.62310000  0.72190000  1.0
  C  C633  1  0.45410000  0.58320000  0.72780000  1.0
  C  C634  1  0.50670000  0.62550000  0.70170000  1.0
  C  C635  1  0.38200000  0.61160000  0.78280000  1.0
  C  C636  1  0.42060000  0.58030000  0.74730000  1.0
  C  C637  1  0.41420000  0.61620000  0.76290000  1.0
  C  C638  1  0.35060000  0.57810000  0.78340000  1.0
  C  C639  1  0.31670000  0.57470000  0.80310000  1.0
  C  C640  1  0.46550000  0.65850000  0.73740000  1.0
  C  C641  1  0.38380000  0.63400000  0.80250000  1.0
  C  C642  1  0.34850000  0.63120000  0.82160000  1.0
  C  C643  1  0.43670000  0.65280000  0.75860000  1.0
  C  C644  1  0.97260000  0.12310000  0.22190000  1.0
  C  C645  1  0.95410000  0.08320000  0.22780000  1.0
  C  C646  1  0.00670000  0.12550000  0.20170000  1.0
  C  C647  1  0.88200000  0.11160000  0.28280000  1.0
  C  C648  1  0.92060000  0.08030000  0.24730000  1.0
  C  C649  1  0.91420000  0.11620000  0.26290000  1.0
  C  C650  1  0.85060000  0.07810000  0.28340000  1.0
  C  C651  1  0.81670000  0.07470000  0.30310000  1.0
  C  C652  1  0.96550000  0.15850000  0.23740000  1.0
  C  C653  1  0.88380000  0.13400000  0.30250000  1.0
  C  C654  1  0.84850000  0.13120000  0.32160000  1.0
  C  C655  1  0.93670000  0.15280000  0.25860000  1.0
  C  C656  1  0.12690000  0.77740000  0.97190000  1.0
  C  C657  1  0.16680000  0.79590000  0.97780000  1.0
  C  C658  1  0.12450000  0.74330000  0.95170000  1.0
  C  C659  1  0.13840000  0.86800000  0.03280000  1.0
  C  C660  1  0.16970000  0.82940000  0.99730000  1.0
  C  C661  1  0.13380000  0.83580000  0.01290000  1.0
  C  C662  1  0.17190000  0.89940000  0.03340000  1.0
  C  C663  1  0.17530000  0.93330000  0.05310000  1.0
  C  C664  1  0.09150000  0.78450000  0.98740000  1.0
  C  C665  1  0.11600000  0.86620000  0.05250000  1.0
  C  C666  1  0.11880000  0.90150000  0.07160000  1.0
  C  C667  1  0.09720000  0.81330000  0.00860000  1.0
  C  C668  1  0.62690000  0.27740000  0.47190000  1.0
  C  C669  1  0.66680000  0.29590000  0.47780000  1.0
  C  C670  1  0.62450000  0.24330000  0.45170000  1.0
  C  C671  1  0.63840000  0.36800000  0.53280000  1.0
  C  C672  1  0.66970000  0.32940000  0.49730000  1.0
  C  C673  1  0.63380000  0.33580000  0.51290000  1.0
  C  C674  1  0.67190000  0.39940000  0.53340000  1.0
  C  C675  1  0.67530000  0.43330000  0.55310000  1.0
  C  C676  1  0.59150000  0.28450000  0.48740000  1.0
  C  C677  1  0.61600000  0.36620000  0.55250000  1.0
  C  C678  1  0.61880000  0.40150000  0.57160000  1.0
  C  C679  1  0.59720000  0.31330000  0.50860000  1.0
  C  C680  1  0.97260000  0.62310000  0.77810000  1.0
  C  C681  1  0.95410000  0.58320000  0.77220000  1.0
  C  C682  1  0.00670000  0.62550000  0.79830000  1.0
  C  C683  1  0.88200000  0.61160000  0.71720000  1.0
  C  C684  1  0.92060000  0.58030000  0.75270000  1.0
  C  C685  1  0.91420000  0.61620000  0.73710000  1.0
  C  C686  1  0.85060000  0.57810000  0.71660000  1.0
  C  C687  1  0.81670000  0.57470000  0.69690000  1.0
  C  C688  1  0.96550000  0.65850000  0.76260000  1.0
  C  C689  1  0.88380000  0.63400000  0.69750000  1.0
  C  C690  1  0.84850000  0.63120000  0.67840000  1.0
  C  C691  1  0.93670000  0.65280000  0.74140000  1.0
  C  C692  1  0.47260000  0.12310000  0.27810000  1.0
  C  C693  1  0.45410000  0.08320000  0.27220000  1.0
  C  C694  1  0.50670000  0.12550000  0.29830000  1.0
  C  C695  1  0.38200000  0.11160000  0.21720000  1.0
  C  C696  1  0.42060000  0.08030000  0.25270000  1.0
  C  C697  1  0.41420000  0.11620000  0.23710000  1.0
  C  C698  1  0.35060000  0.07810000  0.21660000  1.0
  C  C699  1  0.31670000  0.07470000  0.19690000  1.0
  C  C700  1  0.46550000  0.15850000  0.26260000  1.0
  C  C701  1  0.38380000  0.13400000  0.19750000  1.0
  C  C702  1  0.34850000  0.13120000  0.17840000  1.0
  C  C703  1  0.43670000  0.15280000  0.24140000  1.0
  C  C704  1  0.02740000  0.62310000  0.27810000  1.0
  C  C705  1  0.04590000  0.58320000  0.27220000  1.0
  C  C706  1  0.99330000  0.62550000  0.29830000  1.0
  C  C707  1  0.11800000  0.61160000  0.21720000  1.0
  C  C708  1  0.07940000  0.58030000  0.25270000  1.0
  C  C709  1  0.08580000  0.61620000  0.23710000  1.0
  C  C710  1  0.14940000  0.57810000  0.21660000  1.0
  C  C711  1  0.18330000  0.57470000  0.19690000  1.0
  C  C712  1  0.03450000  0.65850000  0.26260000  1.0
  C  C713  1  0.11620000  0.63400000  0.19750000  1.0
  C  C714  1  0.15150000  0.63120000  0.17840000  1.0
  C  C715  1  0.06330000  0.65280000  0.24140000  1.0
  C  C716  1  0.52740000  0.12310000  0.77810000  1.0
  C  C717  1  0.54590000  0.08320000  0.77220000  1.0
  C  C718  1  0.49330000  0.12550000  0.79830000  1.0
  C  C719  1  0.61800000  0.11160000  0.71720000  1.0
  C  C720  1  0.57940000  0.08030000  0.75270000  1.0
  C  C721  1  0.58580000  0.11620000  0.73710000  1.0
  C  C722  1  0.64940000  0.07810000  0.71660000  1.0
  C  C723  1  0.68330000  0.07470000  0.69690000  1.0
  C  C724  1  0.53450000  0.15850000  0.76260000  1.0
  C  C725  1  0.61620000  0.13400000  0.69750000  1.0
  C  C726  1  0.65150000  0.13120000  0.67840000  1.0
  C  C727  1  0.56330000  0.15280000  0.74140000  1.0
  C  C728  1  0.87310000  0.77740000  0.47190000  1.0
  C  C729  1  0.83320000  0.79590000  0.47780000  1.0
  C  C730  1  0.87550000  0.74330000  0.45170000  1.0
  C  C731  1  0.86160000  0.86800000  0.53280000  1.0
  C  C732  1  0.83030000  0.82940000  0.49730000  1.0
  C  C733  1  0.86620000  0.83580000  0.51290000  1.0
  C  C734  1  0.82810000  0.89940000  0.53340000  1.0
  C  C735  1  0.82470000  0.93330000  0.55310000  1.0
  C  C736  1  0.90850000  0.78450000  0.48740000  1.0
  C  C737  1  0.88400000  0.86620000  0.55250000  1.0
  C  C738  1  0.88120000  0.90150000  0.57160000  1.0
  C  C739  1  0.90280000  0.81330000  0.50860000  1.0
  C  C740  1  0.37310000  0.27740000  0.97190000  1.0
  C  C741  1  0.33320000  0.29590000  0.97780000  1.0
  C  C742  1  0.37550000  0.24330000  0.95170000  1.0
  C  C743  1  0.36160000  0.36800000  0.03280000  1.0
  C  C744  1  0.33030000  0.32940000  0.99730000  1.0
  C  C745  1  0.36620000  0.33580000  0.01290000  1.0
  C  C746  1  0.32810000  0.39940000  0.03340000  1.0
  C  C747  1  0.32470000  0.43330000  0.05310000  1.0
  C  C748  1  0.40850000  0.28450000  0.98740000  1.0
  C  C749  1  0.38400000  0.36620000  0.05250000  1.0
  C  C750  1  0.38120000  0.40150000  0.07160000  1.0
  C  C751  1  0.40280000  0.31330000  0.00860000  1.0
  C  C752  1  0.52740000  0.62310000  0.22190000  1.0
  C  C753  1  0.54590000  0.58320000  0.22780000  1.0
  C  C754  1  0.49330000  0.62550000  0.20170000  1.0
  C  C755  1  0.61800000  0.61160000  0.28280000  1.0
  C  C756  1  0.57940000  0.58030000  0.24730000  1.0
  C  C757  1  0.58580000  0.61620000  0.26290000  1.0
  C  C758  1  0.64940000  0.57810000  0.28340000  1.0
  C  C759  1  0.68330000  0.57470000  0.30310000  1.0
  C  C760  1  0.53450000  0.65850000  0.23740000  1.0
  C  C761  1  0.61620000  0.63400000  0.30250000  1.0
  C  C762  1  0.65150000  0.63120000  0.32160000  1.0
  C  C763  1  0.56330000  0.65280000  0.25860000  1.0
  C  C764  1  0.02740000  0.12310000  0.72190000  1.0
  C  C765  1  0.04590000  0.08320000  0.72780000  1.0
  C  C766  1  0.99330000  0.12550000  0.70170000  1.0
  C  C767  1  0.11800000  0.11160000  0.78280000  1.0
  C  C768  1  0.07940000  0.08030000  0.74730000  1.0
  C  C769  1  0.08580000  0.11620000  0.76290000  1.0
  C  C770  1  0.14940000  0.07810000  0.78340000  1.0
  C  C771  1  0.18330000  0.07470000  0.80310000  1.0
  C  C772  1  0.03450000  0.15850000  0.73740000  1.0
  C  C773  1  0.11620000  0.13400000  0.80250000  1.0
  C  C774  1  0.15150000  0.13120000  0.82160000  1.0
  C  C775  1  0.06330000  0.15280000  0.75860000  1.0
  C  C776  1  0.37310000  0.77740000  0.02810000  1.0
  C  C777  1  0.33320000  0.79590000  0.02220000  1.0
  C  C778  1  0.37550000  0.74330000  0.04830000  1.0
  C  C779  1  0.36160000  0.86800000  0.96720000  1.0
  C  C780  1  0.33030000  0.82940000  0.00270000  1.0
  C  C781  1  0.36620000  0.83580000  0.98710000  1.0
  C  C782  1  0.32810000  0.89940000  0.96660000  1.0
  C  C783  1  0.32470000  0.93330000  0.94690000  1.0
  C  C784  1  0.40850000  0.78450000  0.01260000  1.0
  C  C785  1  0.38400000  0.86620000  0.94750000  1.0
  C  C786  1  0.38120000  0.90150000  0.92840000  1.0
  C  C787  1  0.40280000  0.81330000  0.99140000  1.0
  C  C788  1  0.87310000  0.27740000  0.52810000  1.0
  C  C789  1  0.83320000  0.29590000  0.52220000  1.0
  C  C790  1  0.87550000  0.24330000  0.54830000  1.0
  C  C791  1  0.86160000  0.36800000  0.46720000  1.0
  C  C792  1  0.83030000  0.32940000  0.50270000  1.0
  C  C793  1  0.86620000  0.33580000  0.48710000  1.0
  C  C794  1  0.82810000  0.39940000  0.46660000  1.0
  C  C795  1  0.82470000  0.43330000  0.44690000  1.0
  C  C796  1  0.90850000  0.28450000  0.51260000  1.0
  C  C797  1  0.88400000  0.36620000  0.44750000  1.0
  C  C798  1  0.88120000  0.40150000  0.42840000  1.0
  C  C799  1  0.90280000  0.31330000  0.49140000  1.0
  C  C800  1  0.47260000  0.37690000  0.77810000  1.0
  C  C801  1  0.45410000  0.41680000  0.77220000  1.0
  C  C802  1  0.50670000  0.37450000  0.79830000  1.0
  C  C803  1  0.38200000  0.38840000  0.71720000  1.0
  C  C804  1  0.42060000  0.41970000  0.75270000  1.0
  C  C805  1  0.41420000  0.38380000  0.73710000  1.0
  C  C806  1  0.35060000  0.42190000  0.71660000  1.0
  C  C807  1  0.31670000  0.42530000  0.69690000  1.0
  C  C808  1  0.46550000  0.34150000  0.76260000  1.0
  C  C809  1  0.38380000  0.36600000  0.69750000  1.0
  C  C810  1  0.34850000  0.36880000  0.67840000  1.0
  C  C811  1  0.43670000  0.34720000  0.74140000  1.0
  C  C812  1  0.97260000  0.87690000  0.27810000  1.0
  C  C813  1  0.95410000  0.91680000  0.27220000  1.0
  C  C814  1  0.00670000  0.87450000  0.29830000  1.0
  C  C815  1  0.88200000  0.88840000  0.21720000  1.0
  C  C816  1  0.92060000  0.91970000  0.25270000  1.0
  C  C817  1  0.91420000  0.88380000  0.23710000  1.0
  C  C818  1  0.85060000  0.92190000  0.21660000  1.0
  C  C819  1  0.81670000  0.92530000  0.19690000  1.0
  C  C820  1  0.96550000  0.84150000  0.26260000  1.0
  C  C821  1  0.88380000  0.86600000  0.19750000  1.0
  C  C822  1  0.84850000  0.86880000  0.17840000  1.0
  C  C823  1  0.93670000  0.84720000  0.24140000  1.0
  C  C824  1  0.62690000  0.22260000  0.97190000  1.0
  C  C825  1  0.66680000  0.20410000  0.97780000  1.0
  C  C826  1  0.62450000  0.25670000  0.95170000  1.0
  C  C827  1  0.63840000  0.13200000  0.03280000  1.0
  C  C828  1  0.66970000  0.17060000  0.99730000  1.0
  C  C829  1  0.63380000  0.16420000  0.01290000  1.0
  C  C830  1  0.67190000  0.10060000  0.03340000  1.0
  C  C831  1  0.67530000  0.06670000  0.05310000  1.0
  C  C832  1  0.59150000  0.21550000  0.98740000  1.0
  C  C833  1  0.61600000  0.13380000  0.05250000  1.0
  C  C834  1  0.61880000  0.09850000  0.07160000  1.0
  C  C835  1  0.59720000  0.18670000  0.00860000  1.0
  C  C836  1  0.12690000  0.72260000  0.47190000  1.0
  C  C837  1  0.16680000  0.70410000  0.47780000  1.0
  C  C838  1  0.12450000  0.75670000  0.45170000  1.0
  C  C839  1  0.13840000  0.63200000  0.53280000  1.0
  C  C840  1  0.16970000  0.67060000  0.49730000  1.0
  C  C841  1  0.13380000  0.66420000  0.51290000  1.0
  C  C842  1  0.17190000  0.60060000  0.53340000  1.0
  C  C843  1  0.17530000  0.56670000  0.55310000  1.0
  C  C844  1  0.09150000  0.71550000  0.48740000  1.0
  C  C845  1  0.11600000  0.63380000  0.55250000  1.0
  C  C846  1  0.11880000  0.59850000  0.57160000  1.0
  C  C847  1  0.09720000  0.68670000  0.50860000  1.0
  C  C848  1  0.97260000  0.37690000  0.72190000  1.0
  C  C849  1  0.95410000  0.41680000  0.72780000  1.0
  C  C850  1  0.00670000  0.37450000  0.70170000  1.0
  C  C851  1  0.88200000  0.38840000  0.78280000  1.0
  C  C852  1  0.92060000  0.41970000  0.74730000  1.0
  C  C853  1  0.91420000  0.38380000  0.76290000  1.0
  C  C854  1  0.85060000  0.42190000  0.78340000  1.0
  C  C855  1  0.81670000  0.42530000  0.80310000  1.0
  C  C856  1  0.96550000  0.34150000  0.73740000  1.0
  C  C857  1  0.88380000  0.36600000  0.80250000  1.0
  C  C858  1  0.84850000  0.36880000  0.82160000  1.0
  C  C859  1  0.93670000  0.34720000  0.75860000  1.0
  C  C860  1  0.47260000  0.87690000  0.22190000  1.0
  C  C861  1  0.45410000  0.91680000  0.22780000  1.0
  C  C862  1  0.50670000  0.87450000  0.20170000  1.0
  C  C863  1  0.38200000  0.88840000  0.28280000  1.0
  C  C864  1  0.42060000  0.91970000  0.24730000  1.0
  C  C865  1  0.41420000  0.88380000  0.26290000  1.0
  C  C866  1  0.35060000  0.92190000  0.28340000  1.0
  C  C867  1  0.31670000  0.92530000  0.30310000  1.0
  C  C868  1  0.46550000  0.84150000  0.23740000  1.0
  C  C869  1  0.38380000  0.86600000  0.30250000  1.0
  C  C870  1  0.34850000  0.86880000  0.32160000  1.0
  C  C871  1  0.43670000  0.84720000  0.25860000  1.0
  C  C872  1  0.12690000  0.22260000  0.52810000  1.0
  C  C873  1  0.16680000  0.20410000  0.52220000  1.0
  C  C874  1  0.12450000  0.25670000  0.54830000  1.0
  C  C875  1  0.13840000  0.13200000  0.46720000  1.0
  C  C876  1  0.16970000  0.17060000  0.50270000  1.0
  C  C877  1  0.13380000  0.16420000  0.48710000  1.0
  C  C878  1  0.17190000  0.10060000  0.46660000  1.0
  C  C879  1  0.17530000  0.06670000  0.44690000  1.0
  C  C880  1  0.09150000  0.21550000  0.51260000  1.0
  C  C881  1  0.11600000  0.13380000  0.44750000  1.0
  C  C882  1  0.11880000  0.09850000  0.42840000  1.0
  C  C883  1  0.09720000  0.18670000  0.49140000  1.0
  C  C884  1  0.62690000  0.72260000  0.02810000  1.0
  C  C885  1  0.66680000  0.70410000  0.02220000  1.0
  C  C886  1  0.62450000  0.75670000  0.04830000  1.0
  C  C887  1  0.63840000  0.63200000  0.96720000  1.0
  C  C888  1  0.66970000  0.67060000  0.00270000  1.0
  C  C889  1  0.63380000  0.66420000  0.98710000  1.0
  C  C890  1  0.67190000  0.60060000  0.96660000  1.0
  C  C891  1  0.67530000  0.56670000  0.94690000  1.0
  C  C892  1  0.59150000  0.71550000  0.01260000  1.0
  C  C893  1  0.61600000  0.63380000  0.94750000  1.0
  C  C894  1  0.61880000  0.59850000  0.92840000  1.0
  C  C895  1  0.59720000  0.68670000  0.99140000  1.0
  N  N896  1  0.85500000  0.06730000  0.92955000  1.0
  N  N897  1  0.35500000  0.56730000  0.42955000  1.0
  N  N898  1  0.18270000  0.39500000  0.32045000  1.0
  N  N899  1  0.68270000  0.89500000  0.82045000  1.0
  N  N900  1  0.35500000  0.06730000  0.57045000  1.0
  N  N901  1  0.85500000  0.56730000  0.07045000  1.0
  N  N902  1  0.68270000  0.39500000  0.17955000  1.0
  N  N903  1  0.18270000  0.89500000  0.67955000  1.0
  N  N904  1  0.64500000  0.93270000  0.42955000  1.0
  N  N905  1  0.14500000  0.43270000  0.92955000  1.0
  N  N906  1  0.31730000  0.60500000  0.82045000  1.0
  N  N907  1  0.81730000  0.10500000  0.32045000  1.0
  N  N908  1  0.14500000  0.93270000  0.07045000  1.0
  N  N909  1  0.64500000  0.43270000  0.57045000  1.0
  N  N910  1  0.81730000  0.60500000  0.67955000  1.0
  N  N911  1  0.31730000  0.10500000  0.17955000  1.0
  N  N912  1  0.18270000  0.60500000  0.17955000  1.0
  N  N913  1  0.68270000  0.10500000  0.67955000  1.0
  N  N914  1  0.85500000  0.93270000  0.57045000  1.0
  N  N915  1  0.35500000  0.43270000  0.07045000  1.0
  N  N916  1  0.68270000  0.60500000  0.32045000  1.0
  N  N917  1  0.18270000  0.10500000  0.82045000  1.0
  N  N918  1  0.35500000  0.93270000  0.92955000  1.0
  N  N919  1  0.85500000  0.43270000  0.42955000  1.0
  N  N920  1  0.31730000  0.39500000  0.67955000  1.0
  N  N921  1  0.81730000  0.89500000  0.17955000  1.0
  N  N922  1  0.64500000  0.06730000  0.07045000  1.0
  N  N923  1  0.14500000  0.56730000  0.57045000  1.0
  N  N924  1  0.81730000  0.39500000  0.82045000  1.0
  N  N925  1  0.31730000  0.89500000  0.32045000  1.0
  N  N926  1  0.14500000  0.06730000  0.42955000  1.0
  N  N927  1  0.64500000  0.56730000  0.92955000  1.0
  O  O928  1  0.84840000  0.46290000  0.06917000  1.0
  O  O929  1  0.84750000  0.36820000  0.06551000  1.0
  O  O930  1  0.93850000  0.46510000  0.14589000  1.0
  O  O931  1  0.79180000  0.51070000  0.10853000  1.0
  O  O932  1  0.90170000  0.50990000  0.11461000  1.0
  O  O933  1  0.89480000  0.31120000  0.10490000  1.0
  O  O934  1  0.88160000  0.49200000  0.18125000  1.0
  O  O935  1  0.75780000  0.46090000  0.07188000  1.0
  O  O936  1  0.83950000  0.54200000  0.14593000  1.0
  O  O937  1  0.97910000  0.41010000  0.11300000  1.0
  O  O938  1  0.84080000  0.26290000  0.06067000  1.0
  O  O939  1  0.93650000  0.46020000  0.07796000  1.0
  O  O940  1  0.93700000  0.36670000  0.07359000  1.0
  O  O941  1  0.90700000  0.28690000  0.04850000  1.0
  O  O942  1  0.34840000  0.96290000  0.56917000  1.0
  O  O943  1  0.34750000  0.86820000  0.56551000  1.0
  O  O944  1  0.43850000  0.96510000  0.64589000  1.0
  O  O945  1  0.29180000  0.01070000  0.60853000  1.0
  O  O946  1  0.40170000  0.00990000  0.61461000  1.0
  O  O947  1  0.39480000  0.81120000  0.60490000  1.0
  O  O948  1  0.38160000  0.99200000  0.68125000  1.0
  O  O949  1  0.25780000  0.96090000  0.57188000  1.0
  O  O950  1  0.33950000  0.04200000  0.64593000  1.0
  O  O951  1  0.47910000  0.91010000  0.61300000  1.0
  O  O952  1  0.34080000  0.76290000  0.56067000  1.0
  O  O953  1  0.43650000  0.96020000  0.57796000  1.0
  O  O954  1  0.43700000  0.86670000  0.57359000  1.0
  O  O955  1  0.40700000  0.78690000  0.54850000  1.0
  O  O956  1  0.78710000  0.40160000  0.18083000  1.0
  O  O957  1  0.88180000  0.40250000  0.18449000  1.0
  O  O958  1  0.78490000  0.31150000  0.10411000  1.0
  O  O959  1  0.73930000  0.45820000  0.14147000  1.0
  O  O960  1  0.74010000  0.34830000  0.13539000  1.0
  O  O961  1  0.93880000  0.35520000  0.14510000  1.0
  O  O962  1  0.75800000  0.36840000  0.06875000  1.0
  O  O963  1  0.78910000  0.49220000  0.17812000  1.0
  O  O964  1  0.70800000  0.41050000  0.10407000  1.0
  O  O965  1  0.83990000  0.27090000  0.13700000  1.0
  O  O966  1  0.98710000  0.40920000  0.18933000  1.0
  O  O967  1  0.78980000  0.31350000  0.17204000  1.0
  O  O968  1  0.88330000  0.31300000  0.17641000  1.0
  O  O969  1  0.96310000  0.34300000  0.20150000  1.0
  O  O970  1  0.28710000  0.90160000  0.68083000  1.0
  O  O971  1  0.38180000  0.90250000  0.68449000  1.0
  O  O972  1  0.28490000  0.81150000  0.60411000  1.0
  O  O973  1  0.23930000  0.95820000  0.64147000  1.0
  O  O974  1  0.24010000  0.84830000  0.63539000  1.0
  O  O975  1  0.43880000  0.85520000  0.64510000  1.0
  O  O976  1  0.25800000  0.86840000  0.56875000  1.0
  O  O977  1  0.28910000  0.99220000  0.67812000  1.0
  O  O978  1  0.20800000  0.91050000  0.60407000  1.0
  O  O979  1  0.33990000  0.77090000  0.63700000  1.0
  O  O980  1  0.48710000  0.90920000  0.68933000  1.0
  O  O981  1  0.28980000  0.81350000  0.67204000  1.0
  O  O982  1  0.38330000  0.81300000  0.67641000  1.0
  O  O983  1  0.46310000  0.84300000  0.70150000  1.0
  O  O984  1  0.34840000  0.46290000  0.43083000  1.0
  O  O985  1  0.34750000  0.36820000  0.43449000  1.0
  O  O986  1  0.43850000  0.46510000  0.35411000  1.0
  O  O987  1  0.29180000  0.51070000  0.39147000  1.0
  O  O988  1  0.40170000  0.50990000  0.38539000  1.0
  O  O989  1  0.39480000  0.31120000  0.39510000  1.0
  O  O990  1  0.38160000  0.49200000  0.31875000  1.0
  O  O991  1  0.25780000  0.46090000  0.42812000  1.0
  O  O992  1  0.33950000  0.54200000  0.35407000  1.0
  O  O993  1  0.47910000  0.41010000  0.38700000  1.0
  O  O994  1  0.34080000  0.26290000  0.43933000  1.0
  O  O995  1  0.43650000  0.46020000  0.42204000  1.0
  O  O996  1  0.43700000  0.36670000  0.42641000  1.0
  O  O997  1  0.40700000  0.28690000  0.45150000  1.0
  O  O998  1  0.84840000  0.96290000  0.93083000  1.0
  O  O999  1  0.84750000  0.86820000  0.93449000  1.0
  O  O1000  1  0.93850000  0.96510000  0.85411000  1.0
  O  O1001  1  0.79180000  0.01070000  0.89147000  1.0
  O  O1002  1  0.90170000  0.00990000  0.88539000  1.0
  O  O1003  1  0.89480000  0.81120000  0.89510000  1.0
  O  O1004  1  0.88160000  0.99200000  0.81875000  1.0
  O  O1005  1  0.75780000  0.96090000  0.92812000  1.0
  O  O1006  1  0.83950000  0.04200000  0.85407000  1.0
  O  O1007  1  0.97910000  0.91010000  0.88700000  1.0
  O  O1008  1  0.84080000  0.76290000  0.93933000  1.0
  O  O1009  1  0.93650000  0.96020000  0.92204000  1.0
  O  O1010  1  0.93700000  0.86670000  0.92641000  1.0
  O  O1011  1  0.90700000  0.78690000  0.95150000  1.0
  O  O1012  1  0.28710000  0.40160000  0.31917000  1.0
  O  O1013  1  0.38180000  0.40250000  0.31551000  1.0
  O  O1014  1  0.28490000  0.31150000  0.39589000  1.0
  O  O1015  1  0.23930000  0.45820000  0.35853000  1.0
  O  O1016  1  0.24010000  0.34830000  0.36461000  1.0
  O  O1017  1  0.43880000  0.35520000  0.35490000  1.0
  O  O1018  1  0.25800000  0.36840000  0.43125000  1.0
  O  O1019  1  0.28910000  0.49220000  0.32188000  1.0
  O  O1020  1  0.20800000  0.41050000  0.39593000  1.0
  O  O1021  1  0.33990000  0.27090000  0.36300000  1.0
  O  O1022  1  0.48710000  0.40920000  0.31067000  1.0
  O  O1023  1  0.28980000  0.31350000  0.32796000  1.0
  O  O1024  1  0.38330000  0.31300000  0.32359000  1.0
  O  O1025  1  0.46310000  0.34300000  0.29850000  1.0
  O  O1026  1  0.78710000  0.90160000  0.81917000  1.0
  O  O1027  1  0.88180000  0.90250000  0.81551000  1.0
  O  O1028  1  0.78490000  0.81150000  0.89589000  1.0
  O  O1029  1  0.73930000  0.95820000  0.85853000  1.0
  O  O1030  1  0.74010000  0.84830000  0.86461000  1.0
  O  O1031  1  0.93880000  0.85520000  0.85490000  1.0
  O  O1032  1  0.75800000  0.86840000  0.93125000  1.0
  O  O1033  1  0.78910000  0.99220000  0.82188000  1.0
  O  O1034  1  0.70800000  0.91050000  0.89593000  1.0
  O  O1035  1  0.83990000  0.77090000  0.86300000  1.0
  O  O1036  1  0.98710000  0.90920000  0.81067000  1.0
  O  O1037  1  0.78980000  0.81350000  0.82796000  1.0
  O  O1038  1  0.88330000  0.81300000  0.82359000  1.0
  O  O1039  1  0.96310000  0.84300000  0.79850000  1.0
  O  O1040  1  0.65160000  0.53710000  0.56917000  1.0
  O  O1041  1  0.65250000  0.63180000  0.56551000  1.0
  O  O1042  1  0.56150000  0.53490000  0.64589000  1.0
  O  O1043  1  0.70820000  0.48930000  0.60853000  1.0
  O  O1044  1  0.59830000  0.49010000  0.61461000  1.0
  O  O1045  1  0.60520000  0.68880000  0.60490000  1.0
  O  O1046  1  0.61840000  0.50800000  0.68125000  1.0
  O  O1047  1  0.74220000  0.53910000  0.57188000  1.0
  O  O1048  1  0.66050000  0.45800000  0.64593000  1.0
  O  O1049  1  0.52090000  0.58990000  0.61300000  1.0
  O  O1050  1  0.65920000  0.73710000  0.56067000  1.0
  O  O1051  1  0.56350000  0.53980000  0.57796000  1.0
  O  O1052  1  0.56300000  0.63330000  0.57359000  1.0
  O  O1053  1  0.59300000  0.71310000  0.54850000  1.0
  O  O1054  1  0.15160000  0.03710000  0.06917000  1.0
  O  O1055  1  0.15250000  0.13180000  0.06551000  1.0
  O  O1056  1  0.06150000  0.03490000  0.14589000  1.0
  O  O1057  1  0.20820000  0.98930000  0.10853000  1.0
  O  O1058  1  0.09830000  0.99010000  0.11461000  1.0
  O  O1059  1  0.10520000  0.18880000  0.10490000  1.0
  O  O1060  1  0.11840000  0.00800000  0.18125000  1.0
  O  O1061  1  0.24220000  0.03910000  0.07188000  1.0
  O  O1062  1  0.16050000  0.95800000  0.14593000  1.0
  O  O1063  1  0.02090000  0.08990000  0.11300000  1.0
  O  O1064  1  0.15920000  0.23710000  0.06067000  1.0
  O  O1065  1  0.06350000  0.03980000  0.07796000  1.0
  O  O1066  1  0.06300000  0.13330000  0.07359000  1.0
  O  O1067  1  0.09300000  0.21310000  0.04850000  1.0
  O  O1068  1  0.71290000  0.59840000  0.68083000  1.0
  O  O1069  1  0.61820000  0.59750000  0.68449000  1.0
  O  O1070  1  0.71510000  0.68850000  0.60411000  1.0
  O  O1071  1  0.76070000  0.54180000  0.64147000  1.0
  O  O1072  1  0.75990000  0.65170000  0.63539000  1.0
  O  O1073  1  0.56120000  0.64480000  0.64510000  1.0
  O  O1074  1  0.74200000  0.63160000  0.56875000  1.0
  O  O1075  1  0.71090000  0.50780000  0.67812000  1.0
  O  O1076  1  0.79200000  0.58950000  0.60407000  1.0
  O  O1077  1  0.66010000  0.72910000  0.63700000  1.0
  O  O1078  1  0.51290000  0.59080000  0.68933000  1.0
  O  O1079  1  0.71020000  0.68650000  0.67204000  1.0
  O  O1080  1  0.61670000  0.68700000  0.67641000  1.0
  O  O1081  1  0.53690000  0.65700000  0.70150000  1.0
  O  O1082  1  0.21290000  0.09840000  0.18083000  1.0
  O  O1083  1  0.11820000  0.09750000  0.18449000  1.0
  O  O1084  1  0.21510000  0.18850000  0.10411000  1.0
  O  O1085  1  0.26070000  0.04180000  0.14147000  1.0
  O  O1086  1  0.25990000  0.15170000  0.13539000  1.0
  O  O1087  1  0.06120000  0.14480000  0.14510000  1.0
  O  O1088  1  0.24200000  0.13160000  0.06875000  1.0
  O  O1089  1  0.21090000  0.00780000  0.17812000  1.0
  O  O1090  1  0.29200000  0.08950000  0.10407000  1.0
  O  O1091  1  0.16010000  0.22910000  0.13700000  1.0
  O  O1092  1  0.01290000  0.09080000  0.18933000  1.0
  O  O1093  1  0.21020000  0.18650000  0.17204000  1.0
  O  O1094  1  0.11670000  0.18700000  0.17641000  1.0
  O  O1095  1  0.03690000  0.15700000  0.20150000  1.0
  O  O1096  1  0.15160000  0.53710000  0.93083000  1.0
  O  O1097  1  0.15250000  0.63180000  0.93449000  1.0
  O  O1098  1  0.06150000  0.53490000  0.85411000  1.0
  O  O1099  1  0.20820000  0.48930000  0.89147000  1.0
  O  O1100  1  0.09830000  0.49010000  0.88539000  1.0
  O  O1101  1  0.10520000  0.68880000  0.89510000  1.0
  O  O1102  1  0.11840000  0.50800000  0.81875000  1.0
  O  O1103  1  0.24220000  0.53910000  0.92812000  1.0
  O  O1104  1  0.16050000  0.45800000  0.85407000  1.0
  O  O1105  1  0.02090000  0.58990000  0.88700000  1.0
  O  O1106  1  0.15920000  0.73710000  0.93933000  1.0
  O  O1107  1  0.06350000  0.53980000  0.92204000  1.0
  O  O1108  1  0.06300000  0.63330000  0.92641000  1.0
  O  O1109  1  0.09300000  0.71310000  0.95150000  1.0
  O  O1110  1  0.65160000  0.03710000  0.43083000  1.0
  O  O1111  1  0.65250000  0.13180000  0.43449000  1.0
  O  O1112  1  0.56150000  0.03490000  0.35411000  1.0
  O  O1113  1  0.70820000  0.98930000  0.39147000  1.0
  O  O1114  1  0.59830000  0.99010000  0.38539000  1.0
  O  O1115  1  0.60520000  0.18880000  0.39510000  1.0
  O  O1116  1  0.61840000  0.00800000  0.31875000  1.0
  O  O1117  1  0.74220000  0.03910000  0.42812000  1.0
  O  O1118  1  0.66050000  0.95800000  0.35407000  1.0
  O  O1119  1  0.52090000  0.08990000  0.38700000  1.0
  O  O1120  1  0.65920000  0.23710000  0.43933000  1.0
  O  O1121  1  0.56350000  0.03980000  0.42204000  1.0
  O  O1122  1  0.56300000  0.13330000  0.42641000  1.0
  O  O1123  1  0.59300000  0.21310000  0.45150000  1.0
  O  O1124  1  0.21290000  0.59840000  0.81917000  1.0
  O  O1125  1  0.11820000  0.59750000  0.81551000  1.0
  O  O1126  1  0.21510000  0.68850000  0.89589000  1.0
  O  O1127  1  0.26070000  0.54180000  0.85853000  1.0
  O  O1128  1  0.25990000  0.65170000  0.86461000  1.0
  O  O1129  1  0.06120000  0.64480000  0.85490000  1.0
  O  O1130  1  0.24200000  0.63160000  0.93125000  1.0
  O  O1131  1  0.21090000  0.50780000  0.82188000  1.0
  O  O1132  1  0.29200000  0.58950000  0.89593000  1.0
  O  O1133  1  0.16010000  0.72910000  0.86300000  1.0
  O  O1134  1  0.01290000  0.59080000  0.81067000  1.0
  O  O1135  1  0.21020000  0.68650000  0.82796000  1.0
  O  O1136  1  0.11670000  0.68700000  0.82359000  1.0
  O  O1137  1  0.03690000  0.65700000  0.79850000  1.0
  O  O1138  1  0.71290000  0.09840000  0.31917000  1.0
  O  O1139  1  0.61820000  0.09750000  0.31551000  1.0
  O  O1140  1  0.71510000  0.18850000  0.39589000  1.0
  O  O1141  1  0.76070000  0.04180000  0.35853000  1.0
  O  O1142  1  0.75990000  0.15170000  0.36461000  1.0
  O  O1143  1  0.56120000  0.14480000  0.35490000  1.0
  O  O1144  1  0.74200000  0.13160000  0.43125000  1.0
  O  O1145  1  0.71090000  0.00780000  0.32188000  1.0
  O  O1146  1  0.79200000  0.08950000  0.39593000  1.0
  O  O1147  1  0.66010000  0.22910000  0.36300000  1.0
  O  O1148  1  0.51290000  0.09080000  0.31067000  1.0
  O  O1149  1  0.71020000  0.18650000  0.32796000  1.0
  O  O1150  1  0.61670000  0.18700000  0.32359000  1.0
  O  O1151  1  0.53690000  0.15700000  0.29850000  1.0
  O  O1152  1  0.78710000  0.59840000  0.31917000  1.0
  O  O1153  1  0.88180000  0.59750000  0.31551000  1.0
  O  O1154  1  0.78490000  0.68850000  0.39589000  1.0
  O  O1155  1  0.73930000  0.54180000  0.35853000  1.0
  O  O1156  1  0.74010000  0.65170000  0.36461000  1.0
  O  O1157  1  0.93880000  0.64480000  0.35490000  1.0
  O  O1158  1  0.75800000  0.63160000  0.43125000  1.0
  O  O1159  1  0.78910000  0.50780000  0.32188000  1.0
  O  O1160  1  0.70800000  0.58950000  0.39593000  1.0
  O  O1161  1  0.83990000  0.72910000  0.36300000  1.0
  O  O1162  1  0.98710000  0.59080000  0.31067000  1.0
  O  O1163  1  0.78980000  0.68650000  0.32796000  1.0
  O  O1164  1  0.88330000  0.68700000  0.32359000  1.0
  O  O1165  1  0.96310000  0.65700000  0.29850000  1.0
  O  O1166  1  0.28710000  0.09840000  0.81917000  1.0
  O  O1167  1  0.38180000  0.09750000  0.81551000  1.0
  O  O1168  1  0.28490000  0.18850000  0.89589000  1.0
  O  O1169  1  0.23930000  0.04180000  0.85853000  1.0
  O  O1170  1  0.24010000  0.15170000  0.86461000  1.0
  O  O1171  1  0.43880000  0.14480000  0.85490000  1.0
  O  O1172  1  0.25800000  0.13160000  0.93125000  1.0
  O  O1173  1  0.28910000  0.00780000  0.82188000  1.0
  O  O1174  1  0.20800000  0.08950000  0.89593000  1.0
  O  O1175  1  0.33990000  0.22910000  0.86300000  1.0
  O  O1176  1  0.48710000  0.09080000  0.81067000  1.0
  O  O1177  1  0.28980000  0.18650000  0.82796000  1.0
  O  O1178  1  0.38330000  0.18700000  0.82359000  1.0
  O  O1179  1  0.46310000  0.15700000  0.79850000  1.0
  O  O1180  1  0.84840000  0.53710000  0.43083000  1.0
  O  O1181  1  0.84750000  0.63180000  0.43449000  1.0
  O  O1182  1  0.93850000  0.53490000  0.35411000  1.0
  O  O1183  1  0.79180000  0.48930000  0.39147000  1.0
  O  O1184  1  0.90170000  0.49010000  0.38539000  1.0
  O  O1185  1  0.89480000  0.68880000  0.39510000  1.0
  O  O1186  1  0.88160000  0.50800000  0.31875000  1.0
  O  O1187  1  0.75780000  0.53910000  0.42812000  1.0
  O  O1188  1  0.83950000  0.45800000  0.35407000  1.0
  O  O1189  1  0.97910000  0.58990000  0.38700000  1.0
  O  O1190  1  0.84080000  0.73710000  0.43933000  1.0
  O  O1191  1  0.93650000  0.53980000  0.42204000  1.0
  O  O1192  1  0.93700000  0.63330000  0.42641000  1.0
  O  O1193  1  0.90700000  0.71310000  0.45150000  1.0
  O  O1194  1  0.34840000  0.03710000  0.93083000  1.0
  O  O1195  1  0.34750000  0.13180000  0.93449000  1.0
  O  O1196  1  0.43850000  0.03490000  0.85411000  1.0
  O  O1197  1  0.29180000  0.98930000  0.89147000  1.0
  O  O1198  1  0.40170000  0.99010000  0.88539000  1.0
  O  O1199  1  0.39480000  0.18880000  0.89510000  1.0
  O  O1200  1  0.38160000  0.00800000  0.81875000  1.0
  O  O1201  1  0.25780000  0.03910000  0.92812000  1.0
  O  O1202  1  0.33950000  0.95800000  0.85407000  1.0
  O  O1203  1  0.47910000  0.08990000  0.88700000  1.0
  O  O1204  1  0.34080000  0.23710000  0.93933000  1.0
  O  O1205  1  0.43650000  0.03980000  0.92204000  1.0
  O  O1206  1  0.43700000  0.13330000  0.92641000  1.0
  O  O1207  1  0.40700000  0.21310000  0.95150000  1.0
  O  O1208  1  0.28710000  0.59840000  0.18083000  1.0
  O  O1209  1  0.38180000  0.59750000  0.18449000  1.0
  O  O1210  1  0.28490000  0.68850000  0.10411000  1.0
  O  O1211  1  0.23930000  0.54180000  0.14147000  1.0
  O  O1212  1  0.24010000  0.65170000  0.13539000  1.0
  O  O1213  1  0.43880000  0.64480000  0.14510000  1.0
  O  O1214  1  0.25800000  0.63160000  0.06875000  1.0
  O  O1215  1  0.28910000  0.50780000  0.17812000  1.0
  O  O1216  1  0.20800000  0.58950000  0.10407000  1.0
  O  O1217  1  0.33990000  0.72910000  0.13700000  1.0
  O  O1218  1  0.48710000  0.59080000  0.18933000  1.0
  O  O1219  1  0.28980000  0.68650000  0.17204000  1.0
  O  O1220  1  0.38330000  0.68700000  0.17641000  1.0
  O  O1221  1  0.46310000  0.65700000  0.20150000  1.0
  O  O1222  1  0.78710000  0.09840000  0.68083000  1.0
  O  O1223  1  0.88180000  0.09750000  0.68449000  1.0
  O  O1224  1  0.78490000  0.18850000  0.60411000  1.0
  O  O1225  1  0.73930000  0.04180000  0.64147000  1.0
  O  O1226  1  0.74010000  0.15170000  0.63539000  1.0
  O  O1227  1  0.93880000  0.14480000  0.64510000  1.0
  O  O1228  1  0.75800000  0.13160000  0.56875000  1.0
  O  O1229  1  0.78910000  0.00780000  0.67812000  1.0
  O  O1230  1  0.70800000  0.08950000  0.60407000  1.0
  O  O1231  1  0.83990000  0.22910000  0.63700000  1.0
  O  O1232  1  0.98710000  0.09080000  0.68933000  1.0
  O  O1233  1  0.78980000  0.18650000  0.67204000  1.0
  O  O1234  1  0.88330000  0.18700000  0.67641000  1.0
  O  O1235  1  0.96310000  0.15700000  0.70150000  1.0
  O  O1236  1  0.34840000  0.53710000  0.06917000  1.0
  O  O1237  1  0.34750000  0.63180000  0.06551000  1.0
  O  O1238  1  0.43850000  0.53490000  0.14589000  1.0
  O  O1239  1  0.29180000  0.48930000  0.10853000  1.0
  O  O1240  1  0.40170000  0.49010000  0.11461000  1.0
  O  O1241  1  0.39480000  0.68880000  0.10490000  1.0
  O  O1242  1  0.38160000  0.50800000  0.18125000  1.0
  O  O1243  1  0.25780000  0.53910000  0.07188000  1.0
  O  O1244  1  0.33950000  0.45800000  0.14593000  1.0
  O  O1245  1  0.47910000  0.58990000  0.11300000  1.0
  O  O1246  1  0.34080000  0.73710000  0.06067000  1.0
  O  O1247  1  0.43650000  0.53980000  0.07796000  1.0
  O  O1248  1  0.43700000  0.63330000  0.07359000  1.0
  O  O1249  1  0.40700000  0.71310000  0.04850000  1.0
  O  O1250  1  0.84840000  0.03710000  0.56917000  1.0
  O  O1251  1  0.84750000  0.13180000  0.56551000  1.0
  O  O1252  1  0.93850000  0.03490000  0.64589000  1.0
  O  O1253  1  0.79180000  0.98930000  0.60853000  1.0
  O  O1254  1  0.90170000  0.99010000  0.61461000  1.0
  O  O1255  1  0.89480000  0.18880000  0.60490000  1.0
  O  O1256  1  0.88160000  0.00800000  0.68125000  1.0
  O  O1257  1  0.75780000  0.03910000  0.57188000  1.0
  O  O1258  1  0.83950000  0.95800000  0.64593000  1.0
  O  O1259  1  0.97910000  0.08990000  0.61300000  1.0
  O  O1260  1  0.84080000  0.23710000  0.56067000  1.0
  O  O1261  1  0.93650000  0.03980000  0.57796000  1.0
  O  O1262  1  0.93700000  0.13330000  0.57359000  1.0
  O  O1263  1  0.90700000  0.21310000  0.54850000  1.0
  O  O1264  1  0.71290000  0.40160000  0.81917000  1.0
  O  O1265  1  0.61820000  0.40250000  0.81551000  1.0
  O  O1266  1  0.71510000  0.31150000  0.89589000  1.0
  O  O1267  1  0.76070000  0.45820000  0.85853000  1.0
  O  O1268  1  0.75990000  0.34830000  0.86461000  1.0
  O  O1269  1  0.56120000  0.35520000  0.85490000  1.0
  O  O1270  1  0.74200000  0.36840000  0.93125000  1.0
  O  O1271  1  0.71090000  0.49220000  0.82188000  1.0
  O  O1272  1  0.79200000  0.41050000  0.89593000  1.0
  O  O1273  1  0.66010000  0.27090000  0.86300000  1.0
  O  O1274  1  0.51290000  0.40920000  0.81067000  1.0
  O  O1275  1  0.71020000  0.31350000  0.82796000  1.0
  O  O1276  1  0.61670000  0.31300000  0.82359000  1.0
  O  O1277  1  0.53690000  0.34300000  0.79850000  1.0
  O  O1278  1  0.21290000  0.90160000  0.31917000  1.0
  O  O1279  1  0.11820000  0.90250000  0.31551000  1.0
  O  O1280  1  0.21510000  0.81150000  0.39589000  1.0
  O  O1281  1  0.26070000  0.95820000  0.35853000  1.0
  O  O1282  1  0.25990000  0.84830000  0.36461000  1.0
  O  O1283  1  0.06120000  0.85520000  0.35490000  1.0
  O  O1284  1  0.24200000  0.86840000  0.43125000  1.0
  O  O1285  1  0.21090000  0.99220000  0.32188000  1.0
  O  O1286  1  0.29200000  0.91050000  0.39593000  1.0
  O  O1287  1  0.16010000  0.77090000  0.36300000  1.0
  O  O1288  1  0.01290000  0.90920000  0.31067000  1.0
  O  O1289  1  0.21020000  0.81350000  0.32796000  1.0
  O  O1290  1  0.11670000  0.81300000  0.32359000  1.0
  O  O1291  1  0.03690000  0.84300000  0.29850000  1.0
  O  O1292  1  0.65160000  0.46290000  0.93083000  1.0
  O  O1293  1  0.65250000  0.36820000  0.93449000  1.0
  O  O1294  1  0.56150000  0.46510000  0.85411000  1.0
  O  O1295  1  0.70820000  0.51070000  0.89147000  1.0
  O  O1296  1  0.59830000  0.50990000  0.88539000  1.0
  O  O1297  1  0.60520000  0.31120000  0.89510000  1.0
  O  O1298  1  0.61840000  0.49200000  0.81875000  1.0
  O  O1299  1  0.74220000  0.46090000  0.92812000  1.0
  O  O1300  1  0.66050000  0.54200000  0.85407000  1.0
  O  O1301  1  0.52090000  0.41010000  0.88700000  1.0
  O  O1302  1  0.65920000  0.26290000  0.93933000  1.0
  O  O1303  1  0.56350000  0.46020000  0.92204000  1.0
  O  O1304  1  0.56300000  0.36670000  0.92641000  1.0
  O  O1305  1  0.59300000  0.28690000  0.95150000  1.0
  O  O1306  1  0.15160000  0.96290000  0.43083000  1.0
  O  O1307  1  0.15250000  0.86820000  0.43449000  1.0
  O  O1308  1  0.06150000  0.96510000  0.35411000  1.0
  O  O1309  1  0.20820000  0.01070000  0.39147000  1.0
  O  O1310  1  0.09830000  0.00990000  0.38539000  1.0
  O  O1311  1  0.10520000  0.81120000  0.39510000  1.0
  O  O1312  1  0.11840000  0.99200000  0.31875000  1.0
  O  O1313  1  0.24220000  0.96090000  0.42812000  1.0
  O  O1314  1  0.16050000  0.04200000  0.35407000  1.0
  O  O1315  1  0.02090000  0.91010000  0.38700000  1.0
  O  O1316  1  0.15920000  0.76290000  0.43933000  1.0
  O  O1317  1  0.06350000  0.96020000  0.42204000  1.0
  O  O1318  1  0.06300000  0.86670000  0.42641000  1.0
  O  O1319  1  0.09300000  0.78690000  0.45150000  1.0
  O  O1320  1  0.21290000  0.40160000  0.68083000  1.0
  O  O1321  1  0.11820000  0.40250000  0.68449000  1.0
  O  O1322  1  0.21510000  0.31150000  0.60411000  1.0
  O  O1323  1  0.26070000  0.45820000  0.64147000  1.0
  O  O1324  1  0.25990000  0.34830000  0.63539000  1.0
  O  O1325  1  0.06120000  0.35520000  0.64510000  1.0
  O  O1326  1  0.24200000  0.36840000  0.56875000  1.0
  O  O1327  1  0.21090000  0.49220000  0.67812000  1.0
  O  O1328  1  0.29200000  0.41050000  0.60407000  1.0
  O  O1329  1  0.16010000  0.27090000  0.63700000  1.0
  O  O1330  1  0.01290000  0.40920000  0.68933000  1.0
  O  O1331  1  0.21020000  0.31350000  0.67204000  1.0
  O  O1332  1  0.11670000  0.31300000  0.67641000  1.0
  O  O1333  1  0.03690000  0.34300000  0.70150000  1.0
  O  O1334  1  0.71290000  0.90160000  0.18083000  1.0
  O  O1335  1  0.61820000  0.90250000  0.18449000  1.0
  O  O1336  1  0.71510000  0.81150000  0.10411000  1.0
  O  O1337  1  0.76070000  0.95820000  0.14147000  1.0
  O  O1338  1  0.75990000  0.84830000  0.13539000  1.0
  O  O1339  1  0.56120000  0.85520000  0.14510000  1.0
  O  O1340  1  0.74200000  0.86840000  0.06875000  1.0
  O  O1341  1  0.71090000  0.99220000  0.17812000  1.0
  O  O1342  1  0.79200000  0.91050000  0.10407000  1.0
  O  O1343  1  0.66010000  0.77090000  0.13700000  1.0
  O  O1344  1  0.51290000  0.90920000  0.18933000  1.0
  O  O1345  1  0.71020000  0.81350000  0.17204000  1.0
  O  O1346  1  0.61670000  0.81300000  0.17641000  1.0
  O  O1347  1  0.53690000  0.84300000  0.20150000  1.0
  O  O1348  1  0.15160000  0.46290000  0.56917000  1.0
  O  O1349  1  0.15250000  0.36820000  0.56551000  1.0
  O  O1350  1  0.06150000  0.46510000  0.64589000  1.0
  O  O1351  1  0.20820000  0.51070000  0.60853000  1.0
  O  O1352  1  0.09830000  0.50990000  0.61461000  1.0
  O  O1353  1  0.10520000  0.31120000  0.60490000  1.0
  O  O1354  1  0.11840000  0.49200000  0.68125000  1.0
  O  O1355  1  0.24220000  0.46090000  0.57188000  1.0
  O  O1356  1  0.16050000  0.54200000  0.64593000  1.0
  O  O1357  1  0.02090000  0.41010000  0.61300000  1.0
  O  O1358  1  0.15920000  0.26290000  0.56067000  1.0
  O  O1359  1  0.06350000  0.46020000  0.57796000  1.0
  O  O1360  1  0.06300000  0.36670000  0.57359000  1.0
  O  O1361  1  0.09300000  0.28690000  0.54850000  1.0
  O  O1362  1  0.65160000  0.96290000  0.06917000  1.0
  O  O1363  1  0.65250000  0.86820000  0.06551000  1.0
  O  O1364  1  0.56150000  0.96510000  0.14589000  1.0
  O  O1365  1  0.70820000  0.01070000  0.10853000  1.0
  O  O1366  1  0.59830000  0.00990000  0.11461000  1.0
  O  O1367  1  0.60520000  0.81120000  0.10490000  1.0
  O  O1368  1  0.61840000  0.99200000  0.18125000  1.0
  O  O1369  1  0.74220000  0.96090000  0.07188000  1.0
  O  O1370  1  0.66050000  0.04200000  0.14593000  1.0
  O  O1371  1  0.52090000  0.91010000  0.11300000  1.0
  O  O1372  1  0.65920000  0.76290000  0.06067000  1.0
  O  O1373  1  0.56350000  0.96020000  0.07796000  1.0
  O  O1374  1  0.56300000  0.86670000  0.07359000  1.0
  O  O1375  1  0.59300000  0.78690000  0.04850000  1.0
