# generated using pymatgen
data_Sm2CoH24C48(NO2)8
_symmetry_space_group_name_H-M   'P 1'
_cell_length_a   11.18340000
_cell_length_b   32.98290000
_cell_length_c   32.98290000
_cell_angle_alpha   88.35300000
_cell_angle_beta   80.23930000
_cell_angle_gamma   80.23930000
_symmetry_Int_Tables_number   1
_chemical_formula_structural   Sm2CoH24C48(NO2)8
_chemical_formula_sum   'Sm16 Co8 H192 C384 N64 O128'
_cell_volume   11816.43066767
_cell_formula_units_Z   8
loop_
 _symmetry_equiv_pos_site_id
 _symmetry_equiv_pos_as_xyz
  1  'x, y, z'
loop_
 _atom_site_type_symbol
 _atom_site_label
 _atom_site_symmetry_multiplicity
 _atom_site_fract_x
 _atom_site_fract_y
 _atom_site_fract_z
 _atom_site_occupancy
  Sm  Sm0  1  0.31814000  0.97477000  0.17363000  1.0
  Sm  Sm1  1  0.81794000  0.97200000  0.17079000  1.0
  Sm  Sm2  1  0.96654000  0.52523000  0.32637000  1.0
  Sm  Sm3  1  0.46073000  0.52800000  0.32920000  1.0
  Sm  Sm4  1  0.49177000  0.82637000  0.47477000  1.0
  Sm  Sm5  1  0.98872000  0.82921000  0.47201000  1.0
  Sm  Sm6  1  0.29291000  0.67363000  0.02523000  1.0
  Sm  Sm7  1  0.78994000  0.67079000  0.02800000  1.0
  Sm  Sm8  1  0.68186000  0.02523000  0.82637000  1.0
  Sm  Sm9  1  0.18207000  0.02800000  0.82920000  1.0
  Sm  Sm10  1  0.03346000  0.47477000  0.67363000  1.0
  Sm  Sm11  1  0.53928000  0.47200000  0.67079000  1.0
  Sm  Sm12  1  0.50823000  0.17363000  0.52523000  1.0
  Sm  Sm13  1  0.01128000  0.17079000  0.52799000  1.0
  Sm  Sm14  1  0.70709000  0.32637000  0.97477000  1.0
  Sm  Sm15  1  0.21006000  0.32921000  0.97201000  1.0
  Co  Co16  1  0.71162000  0.87094000  0.96391000  1.0
  Co  Co17  1  0.04646000  0.62906000  0.53610000  1.0
  Co  Co18  1  0.67553000  0.03609000  0.37094000  1.0
  Co  Co19  1  0.58256000  0.46391000  0.12905000  1.0
  Co  Co20  1  0.28838000  0.12906000  0.03610000  1.0
  Co  Co21  1  0.95354000  0.37094000  0.46391000  1.0
  Co  Co22  1  0.32448000  0.96391000  0.62905000  1.0
  Co  Co23  1  0.41744000  0.53609000  0.87095000  1.0
  H  H24  1  0.16820000  0.12710000  0.20950000  1.0
  H  H25  1  0.35040000  0.14840000  0.18000000  1.0
  H  H26  1  0.41670000  0.13940000  0.11100000  1.0
  H  H27  1  0.05400000  0.11430000  0.99870000  1.0
  H  H28  1  0.93670000  0.06310000  0.00630000  1.0
  H  H29  1  0.94670000  0.01940000  0.06300000  1.0
  H  H30  1  0.69810000  0.02620000  0.03780000  1.0
  H  H31  1  0.65570000  0.02710000  0.97190000  1.0
  H  H32  1  0.63460000  0.96730000  0.94270000  1.0
  H  H33  1  0.75740000  0.79870000  0.02790000  1.0
  H  H34  1  0.65960000  0.78800000  0.09380000  1.0
  H  H35  1  0.54890000  0.84310000  0.13170000  1.0
  H  H36  1  0.11450000  0.84610000  0.13750000  1.0
  H  H37  1  0.25950000  0.78630000  0.14170000  1.0
  H  H38  1  0.28020000  0.76350000  0.20810000  1.0
  H  H39  1  0.96010000  0.86630000  0.36470000  1.0
  H  H40  1  0.01570000  0.92730000  0.37170000  1.0
  H  H41  1  0.10670000  0.95840000  0.31360000  1.0
  H  H42  1  0.37520000  0.95560000  0.28940000  1.0
  H  H43  1  0.32230000  0.96130000  0.35970000  1.0
  H  H44  1  0.42460000  0.99910000  0.39450000  1.0
  H  H45  1  0.84510000  0.08640000  0.31220000  1.0
  H  H46  1  0.82530000  0.12840000  0.25700000  1.0
  H  H47  1  0.66770000  0.12500000  0.22080000  1.0
  H  H48  1  0.00480000  0.37290000  0.29050000  1.0
  H  H49  1  0.17880000  0.35160000  0.32000000  1.0
  H  H50  1  0.16710000  0.36060000  0.38900000  1.0
  H  H51  1  0.66700000  0.38570000  0.50130000  1.0
  H  H52  1  0.50610000  0.43690000  0.49370000  1.0
  H  H53  1  0.52910000  0.48060000  0.43700000  1.0
  H  H54  1  0.26210000  0.47380000  0.46220000  1.0
  H  H55  1  0.15470000  0.47290000  0.52810000  1.0
  H  H56  1  0.04460000  0.53270000  0.55730000  1.0
  H  H57  1  0.08400000  0.70130000  0.47210000  1.0
  H  H58  1  0.04140000  0.71200000  0.40620000  1.0
  H  H59  1  0.02370000  0.65690000  0.36830000  1.0
  H  H60  1  0.59810000  0.65390000  0.36250000  1.0
  H  H61  1  0.68750000  0.71370000  0.35830000  1.0
  H  H62  1  0.75180000  0.73650000  0.29190000  1.0
  H  H63  1  0.69110000  0.63370000  0.13530000  1.0
  H  H64  1  0.81470000  0.57270000  0.12830000  1.0
  H  H65  1  0.87870000  0.54160000  0.18640000  1.0
  H  H66  1  0.12020000  0.54440000  0.21060000  1.0
  H  H67  1  0.14330000  0.53870000  0.14030000  1.0
  H  H68  1  0.31820000  0.50090000  0.10550000  1.0
  H  H69  1  0.74370000  0.41360000  0.18780000  1.0
  H  H70  1  0.71070000  0.37160000  0.24300000  1.0
  H  H71  1  0.51350000  0.37500000  0.27920000  1.0
  H  H72  1  0.37770000  0.79050000  0.62710000  1.0
  H  H73  1  0.53040000  0.82000000  0.64840000  1.0
  H  H74  1  0.52770000  0.88900000  0.63940000  1.0
  H  H75  1  0.05270000  0.00130000  0.61430000  1.0
  H  H76  1  0.94300000  0.99370000  0.56310000  1.0
  H  H77  1  0.00970000  0.93700000  0.51940000  1.0
  H  H78  1  0.73590000  0.96220000  0.52620000  1.0
  H  H79  1  0.62760000  0.02810000  0.52710000  1.0
  H  H80  1  0.57730000  0.05730000  0.46730000  1.0
  H  H81  1  0.78530000  0.97210000  0.29870000  1.0
  H  H82  1  0.75340000  0.90620000  0.28800000  1.0
  H  H83  1  0.68060000  0.86830000  0.34310000  1.0
  H  H84  1  0.25200000  0.86250000  0.34610000  1.0
  H  H85  1  0.40120000  0.85830000  0.28630000  1.0
  H  H86  1  0.48830000  0.79190000  0.26350000  1.0
  H  H87  1  0.32480000  0.63530000  0.36630000  1.0
  H  H88  1  0.38740000  0.62830000  0.42730000  1.0
  H  H89  1  0.42030000  0.68640000  0.45840000  1.0
  H  H90  1  0.66460000  0.71060000  0.45560000  1.0
  H  H91  1  0.68200000  0.64030000  0.46130000  1.0
  H  H92  1  0.81910000  0.60550000  0.49910000  1.0
  H  H93  1  0.15730000  0.68780000  0.58640000  1.0
  H  H94  1  0.08230000  0.74300000  0.62840000  1.0
  H  H95  1  0.88850000  0.77920000  0.62500000  1.0
  H  H96  1  0.29530000  0.70950000  0.87290000  1.0
  H  H97  1  0.49880000  0.68000000  0.85160000  1.0
  H  H98  1  0.55610000  0.61100000  0.86060000  1.0
  H  H99  1  0.16830000  0.49870000  0.88570000  1.0
  H  H100  1  0.99980000  0.50630000  0.93690000  1.0
  H  H101  1  0.96610000  0.56300000  0.98060000  1.0
  H  H102  1  0.72430000  0.53780000  0.97380000  1.0
  H  H103  1  0.68280000  0.47190000  0.97290000  1.0
  H  H104  1  0.60190000  0.44270000  0.03270000  1.0
  H  H105  1  0.55610000  0.52790000  0.20130000  1.0
  H  H106  1  0.44760000  0.59380000  0.21200000  1.0
  H  H107  1  0.39200000  0.63170000  0.15690000  1.0
  H  H108  1  0.96060000  0.63750000  0.15390000  1.0
  H  H109  1  0.04580000  0.64170000  0.21370000  1.0
  H  H110  1  0.04370000  0.70810000  0.23650000  1.0
  H  H111  1  0.82640000  0.86470000  0.13370000  1.0
  H  H112  1  0.94300000  0.87170000  0.07270000  1.0
  H  H113  1  0.06510000  0.81360000  0.04160000  1.0
  H  H114  1  0.33080000  0.78940000  0.04440000  1.0
  H  H115  1  0.28360000  0.85970000  0.03870000  1.0
  H  H116  1  0.42370000  0.89450000  0.00090000  1.0
  H  H117  1  0.93150000  0.81220000  0.91360000  1.0
  H  H118  1  0.95370000  0.75700000  0.87160000  1.0
  H  H119  1  0.79270000  0.72080000  0.87500000  1.0
  H  H120  1  0.83180000  0.87290000  0.79050000  1.0
  H  H121  1  0.64960000  0.85160000  0.82000000  1.0
  H  H122  1  0.58330000  0.86060000  0.88900000  1.0
  H  H123  1  0.94600000  0.88570000  0.00130000  1.0
  H  H124  1  0.06330000  0.93690000  0.99370000  1.0
  H  H125  1  0.05330000  0.98060000  0.93700000  1.0
  H  H126  1  0.30190000  0.97380000  0.96220000  1.0
  H  H127  1  0.34430000  0.97290000  0.02810000  1.0
  H  H128  1  0.36540000  0.03270000  0.05730000  1.0
  H  H129  1  0.24260000  0.20130000  0.97210000  1.0
  H  H130  1  0.34040000  0.21200000  0.90620000  1.0
  H  H131  1  0.45110000  0.15690000  0.86830000  1.0
  H  H132  1  0.88550000  0.15390000  0.86250000  1.0
  H  H133  1  0.74050000  0.21370000  0.85830000  1.0
  H  H134  1  0.71980000  0.23650000  0.79190000  1.0
  H  H135  1  0.03990000  0.13370000  0.63530000  1.0
  H  H136  1  0.98430000  0.07270000  0.62830000  1.0
  H  H137  1  0.89330000  0.04160000  0.68640000  1.0
  H  H138  1  0.62480000  0.04440000  0.71060000  1.0
  H  H139  1  0.67770000  0.03870000  0.64030000  1.0
  H  H140  1  0.57540000  0.00090000  0.60550000  1.0
  H  H141  1  0.15490000  0.91360000  0.68780000  1.0
  H  H142  1  0.17470000  0.87160000  0.74300000  1.0
  H  H143  1  0.33230000  0.87500000  0.77920000  1.0
  H  H144  1  0.99520000  0.62710000  0.70950000  1.0
  H  H145  1  0.82120000  0.64840000  0.68000000  1.0
  H  H146  1  0.83290000  0.63940000  0.61100000  1.0
  H  H147  1  0.33300000  0.61430000  0.49870000  1.0
  H  H148  1  0.49390000  0.56310000  0.50630000  1.0
  H  H149  1  0.47090000  0.51940000  0.56300000  1.0
  H  H150  1  0.73790000  0.52620000  0.53780000  1.0
  H  H151  1  0.84530000  0.52710000  0.47190000  1.0
  H  H152  1  0.95540000  0.46730000  0.44270000  1.0
  H  H153  1  0.91600000  0.29870000  0.52790000  1.0
  H  H154  1  0.95860000  0.28800000  0.59380000  1.0
  H  H155  1  0.97630000  0.34310000  0.63170000  1.0
  H  H156  1  0.40190000  0.34610000  0.63750000  1.0
  H  H157  1  0.31250000  0.28630000  0.64170000  1.0
  H  H158  1  0.24820000  0.26350000  0.70810000  1.0
  H  H159  1  0.30890000  0.36630000  0.86470000  1.0
  H  H160  1  0.18530000  0.42730000  0.87170000  1.0
  H  H161  1  0.12130000  0.45840000  0.81360000  1.0
  H  H162  1  0.87980000  0.45560000  0.78940000  1.0
  H  H163  1  0.85670000  0.46130000  0.85970000  1.0
  H  H164  1  0.68180000  0.49910000  0.89450000  1.0
  H  H165  1  0.25630000  0.58640000  0.81220000  1.0
  H  H166  1  0.28930000  0.62840000  0.75700000  1.0
  H  H167  1  0.48650000  0.62500000  0.72080000  1.0
  H  H168  1  0.62230000  0.20950000  0.37290000  1.0
  H  H169  1  0.46960000  0.18000000  0.35160000  1.0
  H  H170  1  0.47230000  0.11100000  0.36060000  1.0
  H  H171  1  0.94730000  0.99870000  0.38570000  1.0
  H  H172  1  0.05700000  0.00630000  0.43690000  1.0
  H  H173  1  0.99030000  0.06300000  0.48060000  1.0
  H  H174  1  0.26410000  0.03780000  0.47380000  1.0
  H  H175  1  0.37240000  0.97190000  0.47290000  1.0
  H  H176  1  0.42270000  0.94270000  0.53270000  1.0
  H  H177  1  0.21470000  0.02790000  0.70130000  1.0
  H  H178  1  0.24660000  0.09380000  0.71200000  1.0
  H  H179  1  0.31940000  0.13170000  0.65690000  1.0
  H  H180  1  0.74800000  0.13750000  0.65390000  1.0
  H  H181  1  0.59880000  0.14170000  0.71370000  1.0
  H  H182  1  0.51170000  0.20810000  0.73650000  1.0
  H  H183  1  0.67520000  0.36470000  0.63370000  1.0
  H  H184  1  0.61260000  0.37170000  0.57270000  1.0
  H  H185  1  0.57970000  0.31360000  0.54160000  1.0
  H  H186  1  0.33540000  0.28940000  0.54440000  1.0
  H  H187  1  0.31800000  0.35970000  0.53870000  1.0
  H  H188  1  0.18090000  0.39450000  0.50090000  1.0
  H  H189  1  0.84270000  0.31220000  0.41360000  1.0
  H  H190  1  0.91770000  0.25700000  0.37160000  1.0
  H  H191  1  0.11150000  0.22080000  0.37500000  1.0
  H  H192  1  0.70470000  0.29050000  0.12710000  1.0
  H  H193  1  0.50120000  0.32000000  0.14840000  1.0
  H  H194  1  0.44390000  0.38900000  0.13940000  1.0
  H  H195  1  0.83170000  0.50130000  0.11430000  1.0
  H  H196  1  0.00020000  0.49370000  0.06310000  1.0
  H  H197  1  0.03390000  0.43700000  0.01940000  1.0
  H  H198  1  0.27570000  0.46220000  0.02620000  1.0
  H  H199  1  0.31720000  0.52810000  0.02710000  1.0
  H  H200  1  0.39810000  0.55730000  0.96730000  1.0
  H  H201  1  0.44390000  0.47210000  0.79870000  1.0
  H  H202  1  0.55240000  0.40620000  0.78800000  1.0
  H  H203  1  0.60800000  0.36830000  0.84310000  1.0
  H  H204  1  0.03940000  0.36250000  0.84610000  1.0
  H  H205  1  0.95420000  0.35830000  0.78630000  1.0
  H  H206  1  0.95630000  0.29190000  0.76350000  1.0
  H  H207  1  0.17360000  0.13530000  0.86630000  1.0
  H  H208  1  0.05700000  0.12830000  0.92730000  1.0
  H  H209  1  0.93490000  0.18640000  0.95840000  1.0
  H  H210  1  0.66920000  0.21060000  0.95560000  1.0
  H  H211  1  0.71640000  0.14030000  0.96130000  1.0
  H  H212  1  0.57630000  0.10550000  0.99910000  1.0
  H  H213  1  0.06850000  0.18780000  0.08640000  1.0
  H  H214  1  0.04630000  0.24300000  0.12840000  1.0
  H  H215  1  0.20730000  0.27920000  0.12500000  1.0
  C  C216  1  0.01196000  0.09109000  0.17819000  1.0
  C  C217  1  0.13064000  0.10529000  0.15783000  1.0
  C  C218  1  0.19673000  0.12347000  0.18147000  1.0
  C  C219  1  0.30495000  0.13630000  0.16400000  1.0
  C  C220  1  0.34364000  0.13084000  0.12288000  1.0
  C  C221  1  0.17709000  0.10011000  0.11611000  1.0
  C  C222  1  0.11275000  0.08385000  0.08525000  1.0
  C  C223  1  0.05200000  0.09819000  0.02241000  1.0
  C  C224  1  0.98415000  0.06712000  0.02598000  1.0
  C  C225  1  0.98879000  0.04163000  0.06019000  1.0
  C  C226  1  0.05592000  0.04915000  0.09001000  1.0
  C  C227  1  0.07363000  0.01792000  0.12322000  1.0
  C  C228  1  0.73291000  0.96475000  0.09023000  1.0
  C  C229  1  0.68947000  0.96604000  0.04902000  1.0
  C  C230  1  0.68497000  0.00225000  0.02621000  1.0
  C  C231  1  0.66143000  0.00280000  0.98694000  1.0
  C  C232  1  0.64648000  0.96712000  0.96992000  1.0
  C  C233  1  0.66371000  0.93176000  0.03082000  1.0
  C  C234  1  0.65536000  0.89171000  0.05117000  1.0
  C  C235  1  0.71522000  0.82116000  0.04380000  1.0
  C  C236  1  0.65563000  0.81445000  0.08309000  1.0
  C  C237  1  0.59106000  0.84729000  0.10559000  1.0
  C  C238  1  0.58717000  0.88675000  0.09031000  1.0
  C  C239  1  0.49888000  0.92156000  0.11348000  1.0
  C  C240  1  0.98605000  0.89987000  0.19283000  1.0
  C  C241  1  0.08332000  0.86162000  0.19774000  1.0
  C  C242  1  0.13560000  0.83760000  0.16280000  1.0
  C  C243  1  0.21820000  0.80120000  0.16500000  1.0
  C  C244  1  0.23380000  0.78920000  0.20480000  1.0
  C  C245  1  0.11890000  0.84813000  0.23367000  1.0
  C  C246  1  0.08300000  0.87313000  0.27187000  1.0
  C  C247  1  0.00070000  0.87780000  0.34140000  1.0
  C  C248  1  0.03160000  0.91445000  0.34615000  1.0
  C  C249  1  0.08760000  0.93225000  0.31195000  1.0
  C  C250  1  0.11678000  0.91112000  0.27392000  1.0
  C  C251  1  0.18744000  0.93040000  0.23852000  1.0
  C  C252  1  0.53822000  0.98848000  0.23688000  1.0
  C  C253  1  0.49239000  0.99654000  0.28228000  1.0
  C  C254  1  0.41041000  0.97312000  0.30366000  1.0
  C  C255  1  0.38115000  0.97565000  0.34545000  1.0
  C  C256  1  0.43942000  0.99941000  0.36595000  1.0
  C  C257  1  0.53899000  0.02349000  0.30513000  1.0
  C  C258  1  0.61747000  0.05453000  0.28793000  1.0
  C  C259  1  0.78253000  0.08461000  0.29733000  1.0
  C  C260  1  0.77124000  0.10990000  0.26462000  1.0
  C  C261  1  0.67807000  0.10757000  0.24309000  1.0
  C  C262  1  0.59900000  0.07938000  0.25422000  1.0
  C  C263  1  0.49596000  0.07841000  0.22947000  1.0
  C  C264  1  0.78124000  0.40891000  0.32181000  1.0
  C  C265  1  0.89376000  0.39471000  0.34217000  1.0
  C  C266  1  0.00167000  0.37653000  0.31853000  1.0
  C  C267  1  0.10525000  0.36370000  0.33600000  1.0
  C  C268  1  0.09736000  0.36916000  0.37712000  1.0
  C  C269  1  0.89331000  0.39989000  0.38389000  1.0
  C  C270  1  0.78185000  0.41615000  0.41475000  1.0
  C  C271  1  0.67260000  0.40181000  0.47759000  1.0
  C  C272  1  0.57725000  0.43288000  0.47402000  1.0
  C  C273  1  0.59061000  0.45837000  0.43981000  1.0
  C  C274  1  0.69508000  0.45085000  0.40999000  1.0
  C  C275  1  0.71477000  0.48208000  0.37678000  1.0
  C  C276  1  0.28789000  0.53525000  0.40977000  1.0
  C  C277  1  0.20453000  0.53396000  0.45098000  1.0
  C  C278  1  0.21343000  0.49775000  0.47379000  1.0
  C  C279  1  0.15117000  0.49720000  0.51306000  1.0
  C  C280  1  0.08352000  0.53288000  0.53008000  1.0
  C  C281  1  0.12629000  0.56824000  0.46918000  1.0
  C  C282  1  0.09824000  0.60829000  0.44883000  1.0
  C  C283  1  0.08018000  0.67884000  0.45620000  1.0
  C  C284  1  0.05317000  0.68555000  0.41691000  1.0
  C  C285  1  0.04394000  0.65271000  0.39441000  1.0
  C  C286  1  0.06423000  0.61325000  0.40969000  1.0
  C  C287  1  0.03392000  0.57844000  0.38652000  1.0
  C  C288  1  0.57875000  0.60013000  0.30717000  1.0
  C  C289  1  0.64268000  0.63838000  0.30226000  1.0
  C  C290  1  0.63600000  0.66240000  0.33720000  1.0
  C  C291  1  0.68440000  0.69880000  0.33500000  1.0
  C  C292  1  0.72780000  0.71080000  0.29520000  1.0
  C  C293  1  0.70070000  0.65187000  0.26633000  1.0
  C  C294  1  0.72800000  0.62687000  0.22813000  1.0
  C  C295  1  0.71990000  0.62220000  0.15860000  1.0
  C  C296  1  0.79220000  0.58555000  0.15385000  1.0
  C  C297  1  0.83180000  0.56775000  0.18805000  1.0
  C  C298  1  0.80182000  0.58888000  0.22608000  1.0
  C  C299  1  0.85636000  0.56960000  0.26148000  1.0
  C  C300  1  0.26358000  0.51152000  0.26312000  1.0
  C  C301  1  0.27121000  0.50346000  0.21772000  1.0
  C  C302  1  0.18719000  0.52688000  0.19634000  1.0
  C  C303  1  0.20225000  0.52435000  0.15455000  1.0
  C  C304  1  0.30478000  0.50059000  0.13405000  1.0
  C  C305  1  0.36761000  0.47651000  0.19487000  1.0
  C  C306  1  0.45993000  0.44547000  0.21207000  1.0
  C  C307  1  0.66447000  0.41539000  0.20267000  1.0
  C  C308  1  0.64576000  0.39010000  0.23538000  1.0
  C  C309  1  0.52873000  0.39243000  0.25691000  1.0
  C  C310  1  0.43260000  0.42062000  0.24578000  1.0
  C  C311  1  0.30384000  0.42159000  0.27053000  1.0
  C  C312  1  0.19015000  0.82181000  0.59109000  1.0
  C  C313  1  0.28847000  0.84217000  0.60529000  1.0
  C  C314  1  0.37820000  0.81853000  0.62347000  1.0
  C  C315  1  0.46895000  0.83600000  0.63630000  1.0
  C  C316  1  0.46652000  0.87712000  0.63084000  1.0
  C  C317  1  0.29320000  0.88389000  0.60011000  1.0
  C  C318  1  0.19800000  0.91475000  0.58385000  1.0
  C  C319  1  0.07441000  0.97759000  0.59819000  1.0
  C  C320  1  0.01013000  0.97402000  0.56712000  1.0
  C  C321  1  0.04898000  0.93981000  0.54163000  1.0
  C  C322  1  0.14593000  0.90999000  0.54915000  1.0
  C  C323  1  0.19685000  0.87678000  0.51792000  1.0
  C  C324  1  0.82314000  0.90977000  0.46475000  1.0
  C  C325  1  0.73849000  0.95098000  0.46604000  1.0
  C  C326  1  0.71118000  0.97379000  0.50225000  1.0
  C  C327  1  0.64837000  0.01306000  0.50280000  1.0
  C  C328  1  0.61640000  0.03008000  0.46712000  1.0
  C  C329  1  0.69453000  0.96918000  0.43176000  1.0
  C  C330  1  0.70653000  0.94883000  0.39171000  1.0
  C  C331  1  0.75902000  0.95620000  0.32116000  1.0
  C  C332  1  0.73872000  0.91691000  0.31445000  1.0
  C  C333  1  0.69665000  0.89441000  0.34729000  1.0
  C  C334  1  0.67748000  0.90969000  0.38675000  1.0
  C  C335  1  0.61236000  0.88652000  0.42156000  1.0
  C  C336  1  0.17888000  0.80717000  0.39987000  1.0
  C  C337  1  0.28106000  0.80226000  0.36162000  1.0
  C  C338  1  0.29840000  0.83720000  0.33760000  1.0
  C  C339  1  0.38320000  0.83500000  0.30120000  1.0
  C  C340  1  0.43860000  0.79520000  0.28920000  1.0
  C  C341  1  0.35257000  0.76633000  0.34813000  1.0
  C  C342  1  0.35487000  0.72813000  0.37313000  1.0
  C  C343  1  0.34210000  0.65860000  0.37780000  1.0
  C  C344  1  0.37775000  0.65385000  0.41445000  1.0
  C  C345  1  0.39955000  0.68805000  0.43225000  1.0
  C  C346  1  0.39070000  0.72608000  0.41112000  1.0
  C  C347  1  0.42596000  0.76148000  0.43040000  1.0
  C  C348  1  0.77510000  0.76312000  0.48848000  1.0
  C  C349  1  0.77467000  0.71772000  0.49654000  1.0
  C  C350  1  0.71407000  0.69634000  0.47312000  1.0
  C  C351  1  0.72660000  0.65455000  0.47565000  1.0
  C  C352  1  0.80537000  0.63405000  0.49941000  1.0
  C  C353  1  0.84412000  0.69487000  0.52349000  1.0
  C  C354  1  0.90540000  0.71207000  0.55453000  1.0
  C  C355  1  0.07986000  0.70267000  0.58461000  1.0
  C  C356  1  0.03586000  0.73538000  0.60990000  1.0
  C  C357  1  0.92116000  0.75691000  0.60757000  1.0
  C  C358  1  0.85322000  0.74578000  0.57938000  1.0
  C  C359  1  0.72543000  0.77053000  0.57841000  1.0
  C  C360  1  0.10305000  0.67819000  0.90891000  1.0
  C  C361  1  0.23593000  0.65783000  0.89471000  1.0
  C  C362  1  0.32020000  0.68147000  0.87653000  1.0
  C  C363  1  0.44125000  0.66400000  0.86370000  1.0
  C  C364  1  0.47448000  0.62288000  0.86916000  1.0
  C  C365  1  0.27720000  0.61611000  0.89989000  1.0
  C  C366  1  0.19660000  0.58525000  0.91615000  1.0
  C  C367  1  0.15019000  0.52241000  0.90181000  1.0
  C  C368  1  0.05127000  0.52598000  0.93288000  1.0
  C  C369  1  0.03042000  0.56019000  0.95837000  1.0
  C  C370  1  0.10507000  0.59001000  0.95085000  1.0
  C  C371  1  0.09155000  0.62322000  0.98208000  1.0
  C  C372  1  0.69766000  0.59023000  0.03525000  1.0
  C  C373  1  0.65551000  0.54902000  0.03396000  1.0
  C  C374  1  0.68722000  0.52621000  0.99775000  1.0
  C  C375  1  0.66423000  0.48694000  0.99720000  1.0
  C  C376  1  0.61360000  0.46992000  0.03288000  1.0
  C  C377  1  0.59547000  0.53082000  0.06824000  1.0
  C  C378  1  0.54707000  0.55117000  0.10829000  1.0
  C  C379  1  0.53638000  0.54380000  0.17884000  1.0
  C  C380  1  0.47008000  0.58309000  0.18555000  1.0
  C  C381  1  0.43835000  0.60559000  0.15271000  1.0
  C  C382  1  0.47392000  0.59031000  0.11325000  1.0
  C  C383  1  0.42044000  0.61348000  0.07844000  1.0
  C  C384  1  0.88592000  0.69283000  0.10013000  1.0
  C  C385  1  0.94494000  0.69774000  0.13838000  1.0
  C  C386  1  0.97320000  0.66280000  0.16240000  1.0
  C  C387  1  0.01940000  0.66500000  0.19880000  1.0
  C  C388  1  0.02300000  0.70480000  0.21080000  1.0
  C  C389  1  0.96703000  0.73367000  0.15187000  1.0
  C  C390  1  0.95613000  0.77187000  0.12687000  1.0
  C  C391  1  0.87850000  0.84140000  0.12220000  1.0
  C  C392  1  0.94605000  0.84615000  0.08555000  1.0
  C  C393  1  0.01985000  0.81195000  0.06775000  1.0
  C  C394  1  0.02790000  0.77392000  0.08888000  1.0
  C  C395  1  0.11784000  0.73852000  0.06960000  1.0
  C  C396  1  0.52670000  0.73688000  0.01152000  1.0
  C  C397  1  0.48893000  0.78228000  0.00346000  1.0
  C  C398  1  0.38353000  0.80366000  0.02688000  1.0
  C  C399  1  0.35680000  0.84545000  0.02435000  1.0
  C  C400  1  0.43883000  0.86595000  0.00059000  1.0
  C  C401  1  0.56248000  0.80513000  0.97651000  1.0
  C  C402  1  0.67200000  0.78793000  0.94547000  1.0
  C  C403  1  0.86714000  0.79733000  0.91539000  1.0
  C  C404  1  0.88114000  0.76462000  0.89010000  1.0
  C  C405  1  0.78564000  0.74309000  0.89243000  1.0
  C  C406  1  0.67838000  0.75422000  0.92062000  1.0
  C  C407  1  0.57437000  0.72947000  0.92159000  1.0
  C  C408  1  0.98804000  0.90891000  0.82181000  1.0
  C  C409  1  0.86936000  0.89471000  0.84217000  1.0
  C  C410  1  0.80327000  0.87653000  0.81853000  1.0
  C  C411  1  0.69505000  0.86370000  0.83600000  1.0
  C  C412  1  0.65636000  0.86916000  0.87712000  1.0
  C  C413  1  0.82291000  0.89989000  0.88389000  1.0
  C  C414  1  0.88725000  0.91615000  0.91475000  1.0
  C  C415  1  0.94800000  0.90181000  0.97759000  1.0
  C  C416  1  0.01585000  0.93288000  0.97402000  1.0
  C  C417  1  0.01121000  0.95837000  0.93981000  1.0
  C  C418  1  0.94408000  0.95085000  0.90999000  1.0
  C  C419  1  0.92637000  0.98208000  0.87678000  1.0
  C  C420  1  0.26709000  0.03525000  0.90977000  1.0
  C  C421  1  0.31053000  0.03396000  0.95098000  1.0
  C  C422  1  0.31503000  0.99775000  0.97379000  1.0
  C  C423  1  0.33857000  0.99720000  0.01306000  1.0
  C  C424  1  0.35352000  0.03288000  0.03008000  1.0
  C  C425  1  0.33629000  0.06824000  0.96918000  1.0
  C  C426  1  0.34464000  0.10829000  0.94883000  1.0
  C  C427  1  0.28478000  0.17884000  0.95620000  1.0
  C  C428  1  0.34437000  0.18555000  0.91691000  1.0
  C  C429  1  0.40894000  0.15271000  0.89441000  1.0
  C  C430  1  0.41283000  0.11325000  0.90969000  1.0
  C  C431  1  0.50112000  0.07844000  0.88652000  1.0
  C  C432  1  0.01395000  0.10013000  0.80717000  1.0
  C  C433  1  0.91668000  0.13838000  0.80226000  1.0
  C  C434  1  0.86440000  0.16240000  0.83720000  1.0
  C  C435  1  0.78180000  0.19880000  0.83500000  1.0
  C  C436  1  0.76620000  0.21080000  0.79520000  1.0
  C  C437  1  0.88110000  0.15187000  0.76633000  1.0
  C  C438  1  0.91700000  0.12687000  0.72813000  1.0
  C  C439  1  0.99930000  0.12220000  0.65860000  1.0
  C  C440  1  0.96840000  0.08555000  0.65385000  1.0
  C  C441  1  0.91240000  0.06775000  0.68805000  1.0
  C  C442  1  0.88322000  0.08888000  0.72608000  1.0
  C  C443  1  0.81256000  0.06960000  0.76148000  1.0
  C  C444  1  0.46178000  0.01152000  0.76312000  1.0
  C  C445  1  0.50761000  0.00346000  0.71772000  1.0
  C  C446  1  0.58959000  0.02688000  0.69634000  1.0
  C  C447  1  0.61885000  0.02435000  0.65455000  1.0
  C  C448  1  0.56058000  0.00059000  0.63405000  1.0
  C  C449  1  0.46101000  0.97651000  0.69487000  1.0
  C  C450  1  0.38253000  0.94547000  0.71207000  1.0
  C  C451  1  0.21747000  0.91539000  0.70267000  1.0
  C  C452  1  0.22876000  0.89010000  0.73538000  1.0
  C  C453  1  0.32193000  0.89243000  0.75691000  1.0
  C  C454  1  0.40100000  0.92062000  0.74578000  1.0
  C  C455  1  0.50404000  0.92159000  0.77053000  1.0
  C  C456  1  0.21876000  0.59109000  0.67819000  1.0
  C  C457  1  0.10624000  0.60529000  0.65783000  1.0
  C  C458  1  0.99833000  0.62347000  0.68147000  1.0
  C  C459  1  0.89475000  0.63630000  0.66400000  1.0
  C  C460  1  0.90264000  0.63084000  0.62288000  1.0
  C  C461  1  0.10669000  0.60011000  0.61611000  1.0
  C  C462  1  0.21815000  0.58385000  0.58525000  1.0
  C  C463  1  0.32740000  0.59819000  0.52241000  1.0
  C  C464  1  0.42275000  0.56712000  0.52598000  1.0
  C  C465  1  0.40939000  0.54163000  0.56019000  1.0
  C  C466  1  0.30492000  0.54915000  0.59001000  1.0
  C  C467  1  0.28523000  0.51792000  0.62322000  1.0
  C  C468  1  0.71211000  0.46475000  0.59023000  1.0
  C  C469  1  0.79547000  0.46604000  0.54902000  1.0
  C  C470  1  0.78657000  0.50225000  0.52621000  1.0
  C  C471  1  0.84883000  0.50280000  0.48694000  1.0
  C  C472  1  0.91648000  0.46712000  0.46992000  1.0
  C  C473  1  0.87371000  0.43176000  0.53082000  1.0
  C  C474  1  0.90176000  0.39171000  0.55117000  1.0
  C  C475  1  0.91982000  0.32116000  0.54380000  1.0
  C  C476  1  0.94683000  0.31445000  0.58309000  1.0
  C  C477  1  0.95606000  0.34729000  0.60559000  1.0
  C  C478  1  0.93577000  0.38675000  0.59031000  1.0
  C  C479  1  0.96608000  0.42156000  0.61348000  1.0
  C  C480  1  0.42125000  0.39987000  0.69283000  1.0
  C  C481  1  0.35732000  0.36162000  0.69774000  1.0
  C  C482  1  0.36400000  0.33760000  0.66280000  1.0
  C  C483  1  0.31560000  0.30120000  0.66500000  1.0
  C  C484  1  0.27220000  0.28920000  0.70480000  1.0
  C  C485  1  0.29930000  0.34813000  0.73367000  1.0
  C  C486  1  0.27200000  0.37313000  0.77187000  1.0
  C  C487  1  0.28010000  0.37780000  0.84140000  1.0
  C  C488  1  0.20780000  0.41445000  0.84615000  1.0
  C  C489  1  0.16820000  0.43225000  0.81195000  1.0
  C  C490  1  0.19818000  0.41112000  0.77392000  1.0
  C  C491  1  0.14364000  0.43040000  0.73852000  1.0
  C  C492  1  0.73642000  0.48848000  0.73688000  1.0
  C  C493  1  0.72879000  0.49654000  0.78228000  1.0
  C  C494  1  0.81281000  0.47312000  0.80366000  1.0
  C  C495  1  0.79775000  0.47565000  0.84545000  1.0
  C  C496  1  0.69522000  0.49941000  0.86595000  1.0
  C  C497  1  0.63239000  0.52349000  0.80513000  1.0
  C  C498  1  0.54007000  0.55453000  0.78793000  1.0
  C  C499  1  0.33553000  0.58461000  0.79733000  1.0
  C  C500  1  0.35424000  0.60990000  0.76462000  1.0
  C  C501  1  0.47127000  0.60757000  0.74309000  1.0
  C  C502  1  0.56740000  0.57938000  0.75422000  1.0
  C  C503  1  0.69616000  0.57841000  0.72947000  1.0
  C  C504  1  0.80985000  0.17819000  0.40891000  1.0
  C  C505  1  0.71153000  0.15783000  0.39471000  1.0
  C  C506  1  0.62180000  0.18147000  0.37653000  1.0
  C  C507  1  0.53105000  0.16400000  0.36370000  1.0
  C  C508  1  0.53348000  0.12288000  0.36916000  1.0
  C  C509  1  0.70680000  0.11611000  0.39989000  1.0
  C  C510  1  0.80200000  0.08525000  0.41615000  1.0
  C  C511  1  0.92559000  0.02241000  0.40181000  1.0
  C  C512  1  0.98987000  0.02598000  0.43288000  1.0
  C  C513  1  0.95102000  0.06019000  0.45837000  1.0
  C  C514  1  0.85407000  0.09001000  0.45085000  1.0
  C  C515  1  0.80315000  0.12322000  0.48208000  1.0
  C  C516  1  0.17686000  0.09023000  0.53525000  1.0
  C  C517  1  0.26151000  0.04902000  0.53396000  1.0
  C  C518  1  0.28882000  0.02621000  0.49775000  1.0
  C  C519  1  0.35163000  0.98694000  0.49720000  1.0
  C  C520  1  0.38360000  0.96992000  0.53288000  1.0
  C  C521  1  0.30547000  0.03082000  0.56824000  1.0
  C  C522  1  0.29347000  0.05117000  0.60829000  1.0
  C  C523  1  0.24098000  0.04380000  0.67884000  1.0
  C  C524  1  0.26128000  0.08309000  0.68555000  1.0
  C  C525  1  0.30335000  0.10559000  0.65271000  1.0
  C  C526  1  0.32252000  0.09031000  0.61325000  1.0
  C  C527  1  0.38764000  0.11348000  0.57844000  1.0
  C  C528  1  0.82112000  0.19283000  0.60013000  1.0
  C  C529  1  0.71894000  0.19774000  0.63838000  1.0
  C  C530  1  0.70160000  0.16280000  0.66240000  1.0
  C  C531  1  0.61680000  0.16500000  0.69880000  1.0
  C  C532  1  0.56140000  0.20480000  0.71080000  1.0
  C  C533  1  0.64743000  0.23367000  0.65187000  1.0
  C  C534  1  0.64513000  0.27187000  0.62687000  1.0
  C  C535  1  0.65790000  0.34140000  0.62220000  1.0
  C  C536  1  0.62225000  0.34615000  0.58555000  1.0
  C  C537  1  0.60045000  0.31195000  0.56775000  1.0
  C  C538  1  0.60930000  0.27392000  0.58888000  1.0
  C  C539  1  0.57404000  0.23852000  0.56960000  1.0
  C  C540  1  0.22490000  0.23688000  0.51152000  1.0
  C  C541  1  0.22533000  0.28228000  0.50346000  1.0
  C  C542  1  0.28593000  0.30366000  0.52688000  1.0
  C  C543  1  0.27340000  0.34545000  0.52435000  1.0
  C  C544  1  0.19463000  0.36595000  0.50059000  1.0
  C  C545  1  0.15588000  0.30513000  0.47651000  1.0
  C  C546  1  0.09460000  0.28793000  0.44547000  1.0
  C  C547  1  0.92014000  0.29733000  0.41539000  1.0
  C  C548  1  0.96414000  0.26462000  0.39010000  1.0
  C  C549  1  0.07884000  0.24309000  0.39243000  1.0
  C  C550  1  0.14678000  0.25422000  0.42062000  1.0
  C  C551  1  0.27457000  0.22947000  0.42159000  1.0
  C  C552  1  0.89695000  0.32181000  0.09109000  1.0
  C  C553  1  0.76407000  0.34217000  0.10529000  1.0
  C  C554  1  0.67980000  0.31853000  0.12347000  1.0
  C  C555  1  0.55875000  0.33600000  0.13630000  1.0
  C  C556  1  0.52552000  0.37712000  0.13084000  1.0
  C  C557  1  0.72280000  0.38389000  0.10011000  1.0
  C  C558  1  0.80340000  0.41475000  0.08385000  1.0
  C  C559  1  0.84981000  0.47759000  0.09819000  1.0
  C  C560  1  0.94873000  0.47402000  0.06712000  1.0
  C  C561  1  0.96958000  0.43981000  0.04163000  1.0
  C  C562  1  0.89493000  0.40999000  0.04915000  1.0
  C  C563  1  0.90845000  0.37678000  0.01792000  1.0
  C  C564  1  0.30234000  0.40977000  0.96475000  1.0
  C  C565  1  0.34449000  0.45098000  0.96604000  1.0
  C  C566  1  0.31278000  0.47379000  0.00225000  1.0
  C  C567  1  0.33577000  0.51306000  0.00280000  1.0
  C  C568  1  0.38640000  0.53008000  0.96712000  1.0
  C  C569  1  0.40453000  0.46918000  0.93176000  1.0
  C  C570  1  0.45293000  0.44883000  0.89171000  1.0
  C  C571  1  0.46362000  0.45620000  0.82116000  1.0
  C  C572  1  0.52992000  0.41691000  0.81445000  1.0
  C  C573  1  0.56165000  0.39441000  0.84729000  1.0
  C  C574  1  0.52608000  0.40969000  0.88675000  1.0
  C  C575  1  0.57956000  0.38652000  0.92156000  1.0
  C  C576  1  0.11408000  0.30717000  0.89987000  1.0
  C  C577  1  0.05506000  0.30226000  0.86162000  1.0
  C  C578  1  0.02680000  0.33720000  0.83760000  1.0
  C  C579  1  0.98060000  0.33500000  0.80120000  1.0
  C  C580  1  0.97700000  0.29520000  0.78920000  1.0
  C  C581  1  0.03297000  0.26633000  0.84813000  1.0
  C  C582  1  0.04387000  0.22813000  0.87313000  1.0
  C  C583  1  0.12150000  0.15860000  0.87780000  1.0
  C  C584  1  0.05395000  0.15385000  0.91445000  1.0
  C  C585  1  0.98015000  0.18805000  0.93225000  1.0
  C  C586  1  0.97210000  0.22608000  0.91112000  1.0
  C  C587  1  0.88216000  0.26148000  0.93040000  1.0
  C  C588  1  0.47330000  0.26312000  0.98848000  1.0
  C  C589  1  0.51107000  0.21772000  0.99654000  1.0
  C  C590  1  0.61647000  0.19634000  0.97312000  1.0
  C  C591  1  0.64320000  0.15455000  0.97565000  1.0
  C  C592  1  0.56117000  0.13405000  0.99941000  1.0
  C  C593  1  0.43752000  0.19487000  0.02349000  1.0
  C  C594  1  0.32800000  0.21207000  0.05453000  1.0
  C  C595  1  0.13286000  0.20267000  0.08461000  1.0
  C  C596  1  0.11886000  0.23538000  0.10990000  1.0
  C  C597  1  0.21436000  0.25691000  0.10757000  1.0
  C  C598  1  0.32162000  0.24578000  0.07938000  1.0
  C  C599  1  0.42563000  0.27053000  0.07841000  1.0
  N  N600  1  0.70835000  0.05722000  0.30948000  1.0
  N  N601  1  0.51719000  0.02332000  0.34670000  1.0
  N  N602  1  0.02230000  0.85555000  0.30605000  1.0
  N  N603  1  0.18771000  0.81148000  0.23850000  1.0
  N  N604  1  0.11537000  0.10678000  0.05088000  1.0
  N  N605  1  0.28097000  0.11367000  0.09879000  1.0
  N  N606  1  0.64840000  0.93194000  0.99106000  1.0
  N  N607  1  0.71431000  0.85865000  0.02793000  1.0
  N  N608  1  0.57505000  0.44278000  0.19052000  1.0
  N  N609  1  0.38721000  0.47668000  0.15330000  1.0
  N  N610  1  0.68390000  0.64445000  0.19395000  1.0
  N  N611  1  0.73769000  0.68852000  0.26150000  1.0
  N  N612  1  0.77303000  0.39322000  0.44912000  1.0
  N  N613  1  0.99343000  0.38633000  0.40121000  1.0
  N  N614  1  0.07140000  0.56806000  0.50894000  1.0
  N  N615  1  0.10089000  0.64135000  0.47207000  1.0
  N  N616  1  0.01783000  0.69052000  0.55722000  1.0
  N  N617  1  0.86389000  0.65330000  0.52332000  1.0
  N  N618  1  0.32835000  0.69395000  0.35555000  1.0
  N  N619  1  0.42621000  0.76150000  0.31148000  1.0
  N  N620  1  0.16625000  0.94912000  0.60678000  1.0
  N  N621  1  0.37976000  0.90121000  0.61367000  1.0
  N  N622  1  0.63946000  0.00894000  0.43194000  1.0
  N  N623  1  0.74224000  0.97207000  0.35865000  1.0
  N  N624  1  0.76557000  0.80948000  0.94278000  1.0
  N  N625  1  0.54051000  0.84670000  0.97668000  1.0
  N  N626  1  0.87785000  0.80605000  0.14445000  1.0
  N  N627  1  0.99919000  0.73850000  0.18852000  1.0
  N  N628  1  0.22215000  0.55088000  0.89322000  1.0
  N  N629  1  0.39464000  0.59879000  0.88633000  1.0
  N  N630  1  0.58034000  0.49106000  0.06806000  1.0
  N  N631  1  0.57296000  0.52793000  0.14135000  1.0
  N  N632  1  0.29165000  0.94278000  0.69052000  1.0
  N  N633  1  0.48281000  0.97668000  0.65330000  1.0
  N  N634  1  0.97770000  0.14445000  0.69395000  1.0
  N  N635  1  0.81229000  0.18852000  0.76150000  1.0
  N  N636  1  0.88463000  0.89322000  0.94912000  1.0
  N  N637  1  0.71903000  0.88633000  0.90121000  1.0
  N  N638  1  0.35160000  0.06806000  0.00894000  1.0
  N  N639  1  0.28569000  0.14135000  0.97207000  1.0
  N  N640  1  0.42495000  0.55722000  0.80948000  1.0
  N  N641  1  0.61279000  0.52332000  0.84670000  1.0
  N  N642  1  0.31610000  0.35555000  0.80605000  1.0
  N  N643  1  0.26231000  0.31148000  0.73850000  1.0
  N  N644  1  0.22697000  0.60678000  0.55088000  1.0
  N  N645  1  0.00657000  0.61367000  0.59879000  1.0
  N  N646  1  0.92860000  0.43194000  0.49106000  1.0
  N  N647  1  0.89911000  0.35865000  0.52793000  1.0
  N  N648  1  0.98217000  0.30948000  0.44278000  1.0
  N  N649  1  0.13611000  0.34670000  0.47668000  1.0
  N  N650  1  0.67165000  0.30605000  0.64445000  1.0
  N  N651  1  0.57379000  0.23850000  0.68852000  1.0
  N  N652  1  0.83375000  0.05088000  0.39322000  1.0
  N  N653  1  0.62024000  0.09879000  0.38633000  1.0
  N  N654  1  0.36054000  0.99106000  0.56806000  1.0
  N  N655  1  0.25776000  0.02793000  0.64135000  1.0
  N  N656  1  0.23443000  0.19052000  0.05722000  1.0
  N  N657  1  0.45949000  0.15330000  0.02332000  1.0
  N  N658  1  0.12215000  0.19395000  0.85555000  1.0
  N  N659  1  0.00081000  0.26150000  0.81148000  1.0
  N  N660  1  0.77785000  0.44912000  0.10678000  1.0
  N  N661  1  0.60536000  0.40121000  0.11367000  1.0
  N  N662  1  0.41966000  0.50894000  0.93194000  1.0
  N  N663  1  0.42704000  0.47207000  0.85865000  1.0
  O  O664  1  0.92012000  0.09988000  0.16088000  1.0
  O  O665  1  0.01645000  0.07143000  0.21087000  1.0
  O  O666  1  0.99129000  0.99629000  0.13293000  1.0
  O  O667  1  0.17186000  0.01462000  0.13726000  1.0
  O  O668  1  0.13476000  0.96232000  0.22296000  1.0
  O  O669  1  0.29640000  0.91611000  0.22569000  1.0
  O  O670  1  0.44268000  0.94936000  0.09508000  1.0
  O  O671  1  0.48562000  0.91923000  0.15253000  1.0
  O  O672  1  0.46603000  0.97745000  0.21649000  1.0
  O  O673  1  0.64796000  0.99229000  0.22419000  1.0
  O  O674  1  0.83419000  0.94411000  0.09351000  1.0
  O  O675  1  0.66905000  0.98615000  0.11955000  1.0
  O  O676  1  0.90461000  0.91304000  0.22214000  1.0
  O  O677  1  0.99057000  0.91492000  0.15874000  1.0
  O  O678  1  0.39068000  0.07830000  0.24954000  1.0
  O  O679  1  0.52626000  0.07698000  0.19150000  1.0
  O  O680  1  0.68088000  0.40012000  0.33912000  1.0
  O  O681  1  0.79875000  0.42857000  0.28913000  1.0
  O  O682  1  0.62051000  0.50371000  0.36707000  1.0
  O  O683  1  0.82374000  0.48538000  0.36274000  1.0
  O  O684  1  0.82004000  0.53768000  0.27704000  1.0
  O  O685  1  0.93820000  0.58389000  0.27431000  1.0
  O  O686  1  0.98712000  0.55064000  0.40492000  1.0
  O  O687  1  0.05738000  0.58077000  0.34747000  1.0
  O  O688  1  0.15997000  0.52255000  0.28351000  1.0
  O  O689  1  0.36444000  0.50771000  0.27581000  1.0
  O  O690  1  0.37181000  0.55589000  0.40649000  1.0
  O  O691  1  0.27475000  0.51385000  0.38045000  1.0
  O  O692  1  0.53979000  0.58696000  0.27786000  1.0
  O  O693  1  0.56423000  0.58508000  0.34126000  1.0
  O  O694  1  0.21852000  0.42170000  0.25046000  1.0
  O  O695  1  0.29474000  0.42302000  0.30850000  1.0
  O  O696  1  0.08100000  0.83912000  0.59988000  1.0
  O  O697  1  0.22732000  0.78913000  0.57143000  1.0
  O  O698  1  0.12422000  0.86707000  0.49629000  1.0
  O  O699  1  0.30912000  0.86274000  0.51462000  1.0
  O  O700  1  0.35772000  0.77704000  0.46232000  1.0
  O  O701  1  0.52209000  0.77431000  0.41611000  1.0
  O  O702  1  0.53776000  0.90492000  0.44936000  1.0
  O  O703  1  0.63815000  0.84747000  0.41923000  1.0
  O  O704  1  0.68252000  0.78351000  0.47745000  1.0
  O  O705  1  0.87215000  0.77581000  0.49229000  1.0
  O  O706  1  0.92770000  0.90649000  0.44411000  1.0
  O  O707  1  0.78860000  0.88045000  0.48615000  1.0
  O  O708  1  0.12675000  0.77786000  0.41304000  1.0
  O  O709  1  0.14931000  0.84126000  0.41492000  1.0
  O  O710  1  0.64022000  0.75046000  0.57830000  1.0
  O  O711  1  0.71776000  0.80850000  0.57698000  1.0
  O  O712  1  0.02000000  0.66088000  0.90012000  1.0
  O  O713  1  0.08788000  0.71087000  0.92857000  1.0
  O  O714  1  0.98758000  0.63293000  0.00371000  1.0
  O  O715  1  0.18648000  0.63726000  0.98538000  1.0
  O  O716  1  0.09708000  0.72296000  0.03768000  1.0
  O  O717  1  0.21251000  0.72569000  0.08389000  1.0
  O  O718  1  0.39204000  0.59508000  0.05064000  1.0
  O  O719  1  0.40485000  0.65253000  0.08077000  1.0
  O  O720  1  0.44348000  0.71649000  0.02255000  1.0
  O  O721  1  0.64025000  0.72419000  0.00771000  1.0
  O  O722  1  0.77830000  0.59351000  0.05589000  1.0
  O  O723  1  0.65520000  0.61955000  0.01385000  1.0
  O  O724  1  0.81765000  0.72214000  0.08696000  1.0
  O  O725  1  0.90549000  0.65874000  0.08508000  1.0
  O  O726  1  0.46898000  0.74954000  0.92170000  1.0
  O  O727  1  0.60324000  0.69150000  0.92302000  1.0
  O  O728  1  0.07988000  0.90012000  0.83912000  1.0
  O  O729  1  0.98355000  0.92857000  0.78913000  1.0
  O  O730  1  0.00871000  0.00371000  0.86707000  1.0
  O  O731  1  0.82814000  0.98538000  0.86274000  1.0
  O  O732  1  0.86524000  0.03768000  0.77704000  1.0
  O  O733  1  0.70360000  0.08389000  0.77431000  1.0
  O  O734  1  0.55732000  0.05064000  0.90492000  1.0
  O  O735  1  0.51438000  0.08077000  0.84747000  1.0
  O  O736  1  0.53397000  0.02255000  0.78351000  1.0
  O  O737  1  0.35204000  0.00771000  0.77581000  1.0
  O  O738  1  0.16581000  0.05589000  0.90649000  1.0
  O  O739  1  0.33095000  0.01385000  0.88045000  1.0
  O  O740  1  0.09539000  0.08696000  0.77786000  1.0
  O  O741  1  0.00943000  0.08508000  0.84126000  1.0
  O  O742  1  0.60932000  0.92170000  0.75046000  1.0
  O  O743  1  0.47374000  0.92302000  0.80850000  1.0
  O  O744  1  0.31912000  0.59988000  0.66088000  1.0
  O  O745  1  0.20125000  0.57143000  0.71087000  1.0
  O  O746  1  0.37949000  0.49629000  0.63293000  1.0
  O  O747  1  0.17626000  0.51462000  0.63726000  1.0
  O  O748  1  0.17996000  0.46232000  0.72296000  1.0
  O  O749  1  0.06180000  0.41611000  0.72569000  1.0
  O  O750  1  0.01288000  0.44936000  0.59508000  1.0
  O  O751  1  0.94262000  0.41923000  0.65253000  1.0
  O  O752  1  0.84003000  0.47745000  0.71649000  1.0
  O  O753  1  0.63556000  0.49229000  0.72419000  1.0
  O  O754  1  0.62819000  0.44411000  0.59351000  1.0
  O  O755  1  0.72525000  0.48615000  0.61955000  1.0
  O  O756  1  0.46021000  0.41304000  0.72214000  1.0
  O  O757  1  0.43577000  0.41492000  0.65874000  1.0
  O  O758  1  0.78148000  0.57830000  0.74954000  1.0
  O  O759  1  0.70526000  0.57698000  0.69150000  1.0
  O  O760  1  0.91900000  0.16088000  0.40012000  1.0
  O  O761  1  0.77268000  0.21087000  0.42857000  1.0
  O  O762  1  0.87578000  0.13293000  0.50371000  1.0
  O  O763  1  0.69088000  0.13726000  0.48538000  1.0
  O  O764  1  0.64228000  0.22296000  0.53768000  1.0
  O  O765  1  0.47791000  0.22569000  0.58389000  1.0
  O  O766  1  0.46224000  0.09508000  0.55064000  1.0
  O  O767  1  0.36185000  0.15253000  0.58077000  1.0
  O  O768  1  0.31748000  0.21649000  0.52255000  1.0
  O  O769  1  0.12785000  0.22419000  0.50771000  1.0
  O  O770  1  0.07230000  0.09351000  0.55589000  1.0
  O  O771  1  0.21140000  0.11955000  0.51385000  1.0
  O  O772  1  0.87325000  0.22214000  0.58696000  1.0
  O  O773  1  0.85069000  0.15874000  0.58508000  1.0
  O  O774  1  0.35978000  0.24954000  0.42170000  1.0
  O  O775  1  0.28224000  0.19150000  0.42302000  1.0
  O  O776  1  0.98000000  0.33912000  0.09988000  1.0
  O  O777  1  0.91212000  0.28913000  0.07143000  1.0
  O  O778  1  0.01242000  0.36707000  0.99629000  1.0
  O  O779  1  0.81352000  0.36274000  0.01462000  1.0
  O  O780  1  0.90292000  0.27704000  0.96232000  1.0
  O  O781  1  0.78749000  0.27431000  0.91611000  1.0
  O  O782  1  0.60796000  0.40492000  0.94936000  1.0
  O  O783  1  0.59515000  0.34747000  0.91923000  1.0
  O  O784  1  0.55652000  0.28351000  0.97745000  1.0
  O  O785  1  0.35975000  0.27581000  0.99229000  1.0
  O  O786  1  0.22170000  0.40649000  0.94411000  1.0
  O  O787  1  0.34480000  0.38045000  0.98615000  1.0
  O  O788  1  0.18235000  0.27786000  0.91304000  1.0
  O  O789  1  0.09451000  0.34126000  0.91492000  1.0
  O  O790  1  0.53102000  0.25046000  0.07830000  1.0
  O  O791  1  0.39676000  0.30850000  0.07698000  1.0
