# generated using pymatgen
data_Zr13B6H96C360(O11F16)6
_symmetry_space_group_name_H-M   'P 1'
_cell_length_a   49.36500000
_cell_length_b   49.36500000
_cell_length_c   49.36500000
_cell_angle_alpha   90.00000000
_cell_angle_beta   90.00000000
_cell_angle_gamma   90.00000000
_symmetry_Int_Tables_number   1
_chemical_formula_structural   Zr13B6H96C360(O11F16)6
_chemical_formula_sum   'Zr52 B24 H384 C1440 O264 F384'
_cell_volume   120297.72770213
_cell_formula_units_Z   4
loop_
 _symmetry_equiv_pos_site_id
 _symmetry_equiv_pos_as_xyz
  1  'x, y, z'
loop_
 _atom_site_type_symbol
 _atom_site_label
 _atom_site_symmetry_multiplicity
 _atom_site_fract_x
 _atom_site_fract_y
 _atom_site_fract_z
 _atom_site_occupancy
  Zr  Zr0  1  0.25000000  0.46440000  0.96440000  1.0
  Zr  Zr1  1  0.75000000  0.53560000  0.96440000  1.0
  Zr  Zr2  1  0.75000000  0.46440000  0.03560000  1.0
  Zr  Zr3  1  0.25000000  0.53560000  0.03560000  1.0
  Zr  Zr4  1  0.96440000  0.25000000  0.46440000  1.0
  Zr  Zr5  1  0.96440000  0.75000000  0.53560000  1.0
  Zr  Zr6  1  0.03560000  0.75000000  0.46440000  1.0
  Zr  Zr7  1  0.03560000  0.25000000  0.53560000  1.0
  Zr  Zr8  1  0.46440000  0.96440000  0.25000000  1.0
  Zr  Zr9  1  0.53560000  0.96440000  0.75000000  1.0
  Zr  Zr10  1  0.46440000  0.03560000  0.75000000  1.0
  Zr  Zr11  1  0.53560000  0.03560000  0.25000000  1.0
  Zr  Zr12  1  0.75000000  0.53560000  0.03560000  1.0
  Zr  Zr13  1  0.25000000  0.46440000  0.03560000  1.0
  Zr  Zr14  1  0.25000000  0.53560000  0.96440000  1.0
  Zr  Zr15  1  0.75000000  0.46440000  0.96440000  1.0
  Zr  Zr16  1  0.03560000  0.75000000  0.53560000  1.0
  Zr  Zr17  1  0.03560000  0.25000000  0.46440000  1.0
  Zr  Zr18  1  0.96440000  0.25000000  0.53560000  1.0
  Zr  Zr19  1  0.96440000  0.75000000  0.46440000  1.0
  Zr  Zr20  1  0.53560000  0.03560000  0.75000000  1.0
  Zr  Zr21  1  0.46440000  0.03560000  0.25000000  1.0
  Zr  Zr22  1  0.53560000  0.96440000  0.25000000  1.0
  Zr  Zr23  1  0.46440000  0.96440000  0.75000000  1.0
  Zr  Zr24  1  0.19962000  0.50000000  0.00000000  1.0
  Zr  Zr25  1  0.80038000  0.50000000  0.00000000  1.0
  Zr  Zr26  1  0.00000000  0.19962000  0.50000000  1.0
  Zr  Zr27  1  0.00000000  0.80038000  0.50000000  1.0
  Zr  Zr28  1  0.50000000  0.00000000  0.19962000  1.0
  Zr  Zr29  1  0.50000000  0.00000000  0.80038000  1.0
  Zr  Zr30  1  0.00000000  0.69962000  0.50000000  1.0
  Zr  Zr31  1  0.00000000  0.30038000  0.50000000  1.0
  Zr  Zr32  1  0.69962000  0.50000000  0.00000000  1.0
  Zr  Zr33  1  0.30038000  0.50000000  0.00000000  1.0
  Zr  Zr34  1  0.50000000  0.00000000  0.30038000  1.0
  Zr  Zr35  1  0.50000000  0.00000000  0.69962000  1.0
  Zr  Zr36  1  0.97299000  0.97299000  0.02701000  1.0
  Zr  Zr37  1  0.02701000  0.02701000  0.02701000  1.0
  Zr  Zr38  1  0.02701000  0.97299000  0.97299000  1.0
  Zr  Zr39  1  0.97299000  0.02701000  0.97299000  1.0
  Zr  Zr40  1  0.47299000  0.47299000  0.47299000  1.0
  Zr  Zr41  1  0.52701000  0.52701000  0.47299000  1.0
  Zr  Zr42  1  0.47299000  0.52701000  0.52701000  1.0
  Zr  Zr43  1  0.52701000  0.47299000  0.52701000  1.0
  Zr  Zr44  1  0.02701000  0.02701000  0.97299000  1.0
  Zr  Zr45  1  0.97299000  0.97299000  0.97299000  1.0
  Zr  Zr46  1  0.97299000  0.02701000  0.02701000  1.0
  Zr  Zr47  1  0.02701000  0.97299000  0.02701000  1.0
  Zr  Zr48  1  0.52701000  0.52701000  0.52701000  1.0
  Zr  Zr49  1  0.47299000  0.47299000  0.52701000  1.0
  Zr  Zr50  1  0.52701000  0.47299000  0.47299000  1.0
  Zr  Zr51  1  0.47299000  0.52701000  0.47299000  1.0
  B  B52  1  0.00000000  0.68730000  0.15570000  1.0
  B  B53  1  0.00000000  0.31270000  0.15570000  1.0
  B  B54  1  0.00000000  0.68730000  0.84430000  1.0
  B  B55  1  0.00000000  0.31270000  0.84430000  1.0
  B  B56  1  0.15570000  0.00000000  0.68730000  1.0
  B  B57  1  0.15570000  0.00000000  0.31270000  1.0
  B  B58  1  0.84430000  0.00000000  0.68730000  1.0
  B  B59  1  0.84430000  0.00000000  0.31270000  1.0
  B  B60  1  0.68730000  0.15570000  0.00000000  1.0
  B  B61  1  0.31270000  0.15570000  0.00000000  1.0
  B  B62  1  0.68730000  0.84430000  0.00000000  1.0
  B  B63  1  0.31270000  0.84430000  0.00000000  1.0
  B  B64  1  0.18730000  0.50000000  0.34430000  1.0
  B  B65  1  0.81270000  0.50000000  0.34430000  1.0
  B  B66  1  0.18730000  0.50000000  0.65570000  1.0
  B  B67  1  0.81270000  0.50000000  0.65570000  1.0
  B  B68  1  0.50000000  0.65570000  0.81270000  1.0
  B  B69  1  0.50000000  0.65570000  0.18730000  1.0
  B  B70  1  0.50000000  0.34430000  0.81270000  1.0
  B  B71  1  0.50000000  0.34430000  0.18730000  1.0
  B  B72  1  0.65570000  0.18730000  0.50000000  1.0
  B  B73  1  0.65570000  0.81270000  0.50000000  1.0
  B  B74  1  0.34430000  0.18730000  0.50000000  1.0
  B  B75  1  0.34430000  0.81270000  0.50000000  1.0
  H  H76  1  0.26560000  0.37460000  0.04230000  1.0
  H  H77  1  0.27220000  0.32770000  0.04090000  1.0
  H  H78  1  0.19040000  0.58080000  0.08670000  1.0
  H  H79  1  0.15690000  0.60530000  0.10860000  1.0
  H  H80  1  0.10020000  0.56760000  0.06410000  1.0
  H  H81  1  0.13370000  0.54310000  0.04210000  1.0
  H  H82  1  0.96110000  0.85610000  0.09540000  1.0
  H  H83  1  0.96020000  0.89480000  0.06880000  1.0
  H  H84  1  0.73440000  0.62540000  0.04230000  1.0
  H  H85  1  0.72780000  0.67230000  0.04090000  1.0
  H  H86  1  0.80960000  0.41920000  0.08670000  1.0
  H  H87  1  0.84310000  0.39470000  0.10860000  1.0
  H  H88  1  0.89980000  0.43240000  0.06410000  1.0
  H  H89  1  0.86630000  0.45690000  0.04210000  1.0
  H  H90  1  0.03890000  0.14390000  0.09540000  1.0
  H  H91  1  0.03980000  0.10520000  0.06880000  1.0
  H  H92  1  0.73440000  0.37460000  0.95770000  1.0
  H  H93  1  0.72780000  0.32770000  0.95910000  1.0
  H  H94  1  0.80960000  0.58080000  0.91330000  1.0
  H  H95  1  0.84310000  0.60530000  0.89140000  1.0
  H  H96  1  0.89980000  0.56760000  0.93590000  1.0
  H  H97  1  0.86630000  0.54310000  0.95790000  1.0
  H  H98  1  0.03890000  0.85610000  0.90460000  1.0
  H  H99  1  0.03980000  0.89480000  0.93120000  1.0
  H  H100  1  0.26560000  0.62540000  0.95770000  1.0
  H  H101  1  0.27220000  0.67230000  0.95910000  1.0
  H  H102  1  0.19040000  0.41920000  0.91330000  1.0
  H  H103  1  0.15690000  0.39470000  0.89140000  1.0
  H  H104  1  0.10020000  0.43240000  0.93590000  1.0
  H  H105  1  0.13370000  0.45690000  0.95790000  1.0
  H  H106  1  0.96110000  0.14390000  0.90460000  1.0
  H  H107  1  0.96020000  0.10520000  0.93120000  1.0
  H  H108  1  0.04230000  0.26560000  0.37460000  1.0
  H  H109  1  0.04090000  0.27220000  0.32770000  1.0
  H  H110  1  0.08670000  0.19040000  0.58080000  1.0
  H  H111  1  0.10860000  0.15690000  0.60530000  1.0
  H  H112  1  0.06410000  0.10020000  0.56760000  1.0
  H  H113  1  0.04210000  0.13370000  0.54310000  1.0
  H  H114  1  0.09540000  0.96110000  0.85610000  1.0
  H  H115  1  0.06880000  0.96020000  0.89480000  1.0
  H  H116  1  0.04230000  0.73440000  0.62540000  1.0
  H  H117  1  0.04090000  0.72780000  0.67230000  1.0
  H  H118  1  0.08670000  0.80960000  0.41920000  1.0
  H  H119  1  0.10860000  0.84310000  0.39470000  1.0
  H  H120  1  0.06410000  0.89980000  0.43240000  1.0
  H  H121  1  0.04210000  0.86630000  0.45690000  1.0
  H  H122  1  0.09540000  0.03890000  0.14390000  1.0
  H  H123  1  0.06880000  0.03980000  0.10520000  1.0
  H  H124  1  0.95770000  0.73440000  0.37460000  1.0
  H  H125  1  0.95910000  0.72780000  0.32770000  1.0
  H  H126  1  0.91330000  0.80960000  0.58080000  1.0
  H  H127  1  0.89140000  0.84310000  0.60530000  1.0
  H  H128  1  0.93590000  0.89980000  0.56760000  1.0
  H  H129  1  0.95790000  0.86630000  0.54310000  1.0
  H  H130  1  0.90460000  0.03890000  0.85610000  1.0
  H  H131  1  0.93120000  0.03980000  0.89480000  1.0
  H  H132  1  0.95770000  0.26560000  0.62540000  1.0
  H  H133  1  0.95910000  0.27220000  0.67230000  1.0
  H  H134  1  0.91330000  0.19040000  0.41920000  1.0
  H  H135  1  0.89140000  0.15690000  0.39470000  1.0
  H  H136  1  0.93590000  0.10020000  0.43240000  1.0
  H  H137  1  0.95790000  0.13370000  0.45690000  1.0
  H  H138  1  0.90460000  0.96110000  0.14390000  1.0
  H  H139  1  0.93120000  0.96020000  0.10520000  1.0
  H  H140  1  0.37460000  0.04230000  0.26560000  1.0
  H  H141  1  0.32770000  0.04090000  0.27220000  1.0
  H  H142  1  0.58080000  0.08670000  0.19040000  1.0
  H  H143  1  0.60530000  0.10860000  0.15690000  1.0
  H  H144  1  0.56760000  0.06410000  0.10020000  1.0
  H  H145  1  0.54310000  0.04210000  0.13370000  1.0
  H  H146  1  0.85610000  0.09540000  0.96110000  1.0
  H  H147  1  0.89480000  0.06880000  0.96020000  1.0
  H  H148  1  0.62540000  0.04230000  0.73440000  1.0
  H  H149  1  0.67230000  0.04090000  0.72780000  1.0
  H  H150  1  0.41920000  0.08670000  0.80960000  1.0
  H  H151  1  0.39470000  0.10860000  0.84310000  1.0
  H  H152  1  0.43240000  0.06410000  0.89980000  1.0
  H  H153  1  0.45690000  0.04210000  0.86630000  1.0
  H  H154  1  0.14390000  0.09540000  0.03890000  1.0
  H  H155  1  0.10520000  0.06880000  0.03980000  1.0
  H  H156  1  0.37460000  0.95770000  0.73440000  1.0
  H  H157  1  0.32770000  0.95910000  0.72780000  1.0
  H  H158  1  0.58080000  0.91330000  0.80960000  1.0
  H  H159  1  0.60530000  0.89140000  0.84310000  1.0
  H  H160  1  0.56760000  0.93590000  0.89980000  1.0
  H  H161  1  0.54310000  0.95790000  0.86630000  1.0
  H  H162  1  0.85610000  0.90460000  0.03890000  1.0
  H  H163  1  0.89480000  0.93120000  0.03980000  1.0
  H  H164  1  0.62540000  0.95770000  0.26560000  1.0
  H  H165  1  0.67230000  0.95910000  0.27220000  1.0
  H  H166  1  0.41920000  0.91330000  0.19040000  1.0
  H  H167  1  0.39470000  0.89140000  0.15690000  1.0
  H  H168  1  0.43240000  0.93590000  0.10020000  1.0
  H  H169  1  0.45690000  0.95790000  0.13370000  1.0
  H  H170  1  0.14390000  0.90460000  0.96110000  1.0
  H  H171  1  0.10520000  0.93120000  0.96020000  1.0
  H  H172  1  0.87460000  0.76560000  0.45770000  1.0
  H  H173  1  0.82770000  0.77220000  0.45910000  1.0
  H  H174  1  0.08080000  0.69040000  0.41330000  1.0
  H  H175  1  0.10530000  0.65690000  0.39140000  1.0
  H  H176  1  0.06760000  0.60020000  0.43590000  1.0
  H  H177  1  0.04310000  0.63370000  0.45790000  1.0
  H  H178  1  0.35610000  0.46110000  0.40460000  1.0
  H  H179  1  0.39480000  0.46020000  0.43120000  1.0
  H  H180  1  0.12540000  0.23440000  0.45770000  1.0
  H  H181  1  0.17230000  0.22780000  0.45910000  1.0
  H  H182  1  0.91920000  0.30960000  0.41330000  1.0
  H  H183  1  0.89470000  0.34310000  0.39140000  1.0
  H  H184  1  0.93240000  0.39980000  0.43590000  1.0
  H  H185  1  0.95690000  0.36630000  0.45790000  1.0
  H  H186  1  0.64390000  0.53890000  0.40460000  1.0
  H  H187  1  0.60520000  0.53980000  0.43120000  1.0
  H  H188  1  0.87460000  0.23440000  0.54230000  1.0
  H  H189  1  0.82770000  0.22780000  0.54090000  1.0
  H  H190  1  0.08080000  0.30960000  0.58670000  1.0
  H  H191  1  0.10530000  0.34310000  0.60860000  1.0
  H  H192  1  0.06760000  0.39980000  0.56410000  1.0
  H  H193  1  0.04310000  0.36630000  0.54210000  1.0
  H  H194  1  0.35610000  0.53890000  0.59540000  1.0
  H  H195  1  0.39480000  0.53980000  0.56880000  1.0
  H  H196  1  0.12540000  0.76560000  0.54230000  1.0
  H  H197  1  0.17230000  0.77220000  0.54090000  1.0
  H  H198  1  0.91920000  0.69040000  0.58670000  1.0
  H  H199  1  0.89470000  0.65690000  0.60860000  1.0
  H  H200  1  0.93240000  0.60020000  0.56410000  1.0
  H  H201  1  0.95690000  0.63370000  0.54210000  1.0
  H  H202  1  0.64390000  0.46110000  0.59540000  1.0
  H  H203  1  0.60520000  0.46020000  0.56880000  1.0
  H  H204  1  0.76560000  0.54230000  0.12540000  1.0
  H  H205  1  0.77220000  0.54090000  0.17230000  1.0
  H  H206  1  0.69040000  0.58670000  0.91920000  1.0
  H  H207  1  0.65690000  0.60860000  0.89470000  1.0
  H  H208  1  0.60020000  0.56410000  0.93240000  1.0
  H  H209  1  0.63370000  0.54210000  0.95690000  1.0
  H  H210  1  0.46110000  0.59540000  0.64390000  1.0
  H  H211  1  0.46020000  0.56880000  0.60520000  1.0
  H  H212  1  0.23440000  0.54230000  0.87460000  1.0
  H  H213  1  0.22780000  0.54090000  0.82770000  1.0
  H  H214  1  0.30960000  0.58670000  0.08080000  1.0
  H  H215  1  0.34310000  0.60860000  0.10530000  1.0
  H  H216  1  0.39980000  0.56410000  0.06760000  1.0
  H  H217  1  0.36630000  0.54210000  0.04310000  1.0
  H  H218  1  0.53890000  0.59540000  0.35610000  1.0
  H  H219  1  0.53980000  0.56880000  0.39480000  1.0
  H  H220  1  0.23440000  0.45770000  0.12540000  1.0
  H  H221  1  0.22780000  0.45910000  0.17230000  1.0
  H  H222  1  0.30960000  0.41330000  0.91920000  1.0
  H  H223  1  0.34310000  0.39140000  0.89470000  1.0
  H  H224  1  0.39980000  0.43590000  0.93240000  1.0
  H  H225  1  0.36630000  0.45790000  0.95690000  1.0
  H  H226  1  0.53890000  0.40460000  0.64390000  1.0
  H  H227  1  0.53980000  0.43120000  0.60520000  1.0
  H  H228  1  0.76560000  0.45770000  0.87460000  1.0
  H  H229  1  0.77220000  0.45910000  0.82770000  1.0
  H  H230  1  0.69040000  0.41330000  0.08080000  1.0
  H  H231  1  0.65690000  0.39140000  0.10530000  1.0
  H  H232  1  0.60020000  0.43590000  0.06760000  1.0
  H  H233  1  0.63370000  0.45790000  0.04310000  1.0
  H  H234  1  0.46110000  0.40460000  0.35610000  1.0
  H  H235  1  0.46020000  0.43120000  0.39480000  1.0
  H  H236  1  0.54230000  0.87460000  0.23440000  1.0
  H  H237  1  0.54090000  0.82770000  0.22780000  1.0
  H  H238  1  0.58670000  0.08080000  0.30960000  1.0
  H  H239  1  0.60860000  0.10530000  0.34310000  1.0
  H  H240  1  0.56410000  0.06760000  0.39980000  1.0
  H  H241  1  0.54210000  0.04310000  0.36630000  1.0
  H  H242  1  0.59540000  0.35610000  0.53890000  1.0
  H  H243  1  0.56880000  0.39480000  0.53980000  1.0
  H  H244  1  0.54230000  0.12540000  0.76560000  1.0
  H  H245  1  0.54090000  0.17230000  0.77220000  1.0
  H  H246  1  0.58670000  0.91920000  0.69040000  1.0
  H  H247  1  0.60860000  0.89470000  0.65690000  1.0
  H  H248  1  0.56410000  0.93240000  0.60020000  1.0
  H  H249  1  0.54210000  0.95690000  0.63370000  1.0
  H  H250  1  0.59540000  0.64390000  0.46110000  1.0
  H  H251  1  0.56880000  0.60520000  0.46020000  1.0
  H  H252  1  0.45770000  0.87460000  0.76560000  1.0
  H  H253  1  0.45910000  0.82770000  0.77220000  1.0
  H  H254  1  0.41330000  0.08080000  0.69040000  1.0
  H  H255  1  0.39140000  0.10530000  0.65690000  1.0
  H  H256  1  0.43590000  0.06760000  0.60020000  1.0
  H  H257  1  0.45790000  0.04310000  0.63370000  1.0
  H  H258  1  0.40460000  0.35610000  0.46110000  1.0
  H  H259  1  0.43120000  0.39480000  0.46020000  1.0
  H  H260  1  0.45770000  0.12540000  0.23440000  1.0
  H  H261  1  0.45910000  0.17230000  0.22780000  1.0
  H  H262  1  0.41330000  0.91920000  0.30960000  1.0
  H  H263  1  0.39140000  0.89470000  0.34310000  1.0
  H  H264  1  0.43590000  0.93240000  0.39980000  1.0
  H  H265  1  0.45790000  0.95690000  0.36630000  1.0
  H  H266  1  0.40460000  0.64390000  0.53890000  1.0
  H  H267  1  0.43120000  0.60520000  0.53980000  1.0
  H  H268  1  0.73440000  0.62540000  0.95770000  1.0
  H  H269  1  0.72780000  0.67230000  0.95910000  1.0
  H  H270  1  0.80960000  0.41920000  0.91330000  1.0
  H  H271  1  0.84310000  0.39470000  0.89140000  1.0
  H  H272  1  0.89980000  0.43240000  0.93590000  1.0
  H  H273  1  0.86630000  0.45690000  0.95790000  1.0
  H  H274  1  0.03890000  0.14390000  0.90460000  1.0
  H  H275  1  0.03980000  0.10520000  0.93120000  1.0
  H  H276  1  0.26560000  0.37460000  0.95770000  1.0
  H  H277  1  0.27220000  0.32770000  0.95910000  1.0
  H  H278  1  0.19040000  0.58080000  0.91330000  1.0
  H  H279  1  0.15690000  0.60530000  0.89140000  1.0
  H  H280  1  0.10020000  0.56760000  0.93590000  1.0
  H  H281  1  0.13370000  0.54310000  0.95790000  1.0
  H  H282  1  0.96110000  0.85610000  0.90460000  1.0
  H  H283  1  0.96020000  0.89480000  0.93120000  1.0
  H  H284  1  0.26560000  0.62540000  0.04230000  1.0
  H  H285  1  0.27220000  0.67230000  0.04090000  1.0
  H  H286  1  0.19040000  0.41920000  0.08670000  1.0
  H  H287  1  0.15690000  0.39470000  0.10860000  1.0
  H  H288  1  0.10020000  0.43240000  0.06410000  1.0
  H  H289  1  0.13370000  0.45690000  0.04210000  1.0
  H  H290  1  0.96110000  0.14390000  0.09540000  1.0
  H  H291  1  0.96020000  0.10520000  0.06880000  1.0
  H  H292  1  0.73440000  0.37460000  0.04230000  1.0
  H  H293  1  0.72780000  0.32770000  0.04090000  1.0
  H  H294  1  0.80960000  0.58080000  0.08670000  1.0
  H  H295  1  0.84310000  0.60530000  0.10860000  1.0
  H  H296  1  0.89980000  0.56760000  0.06410000  1.0
  H  H297  1  0.86630000  0.54310000  0.04210000  1.0
  H  H298  1  0.03890000  0.85610000  0.09540000  1.0
  H  H299  1  0.03980000  0.89480000  0.06880000  1.0
  H  H300  1  0.95770000  0.73440000  0.62540000  1.0
  H  H301  1  0.95910000  0.72780000  0.67230000  1.0
  H  H302  1  0.91330000  0.80960000  0.41920000  1.0
  H  H303  1  0.89140000  0.84310000  0.39470000  1.0
  H  H304  1  0.93590000  0.89980000  0.43240000  1.0
  H  H305  1  0.95790000  0.86630000  0.45690000  1.0
  H  H306  1  0.90460000  0.03890000  0.14390000  1.0
  H  H307  1  0.93120000  0.03980000  0.10520000  1.0
  H  H308  1  0.95770000  0.26560000  0.37460000  1.0
  H  H309  1  0.95910000  0.27220000  0.32770000  1.0
  H  H310  1  0.91330000  0.19040000  0.58080000  1.0
  H  H311  1  0.89140000  0.15690000  0.60530000  1.0
  H  H312  1  0.93590000  0.10020000  0.56760000  1.0
  H  H313  1  0.95790000  0.13370000  0.54310000  1.0
  H  H314  1  0.90460000  0.96110000  0.85610000  1.0
  H  H315  1  0.93120000  0.96020000  0.89480000  1.0
  H  H316  1  0.04230000  0.26560000  0.62540000  1.0
  H  H317  1  0.04090000  0.27220000  0.67230000  1.0
  H  H318  1  0.08670000  0.19040000  0.41920000  1.0
  H  H319  1  0.10860000  0.15690000  0.39470000  1.0
  H  H320  1  0.06410000  0.10020000  0.43240000  1.0
  H  H321  1  0.04210000  0.13370000  0.45690000  1.0
  H  H322  1  0.09540000  0.96110000  0.14390000  1.0
  H  H323  1  0.06880000  0.96020000  0.10520000  1.0
  H  H324  1  0.04230000  0.73440000  0.37460000  1.0
  H  H325  1  0.04090000  0.72780000  0.32770000  1.0
  H  H326  1  0.08670000  0.80960000  0.58080000  1.0
  H  H327  1  0.10860000  0.84310000  0.60530000  1.0
  H  H328  1  0.06410000  0.89980000  0.56760000  1.0
  H  H329  1  0.04210000  0.86630000  0.54310000  1.0
  H  H330  1  0.09540000  0.03890000  0.85610000  1.0
  H  H331  1  0.06880000  0.03980000  0.89480000  1.0
  H  H332  1  0.62540000  0.95770000  0.73440000  1.0
  H  H333  1  0.67230000  0.95910000  0.72780000  1.0
  H  H334  1  0.41920000  0.91330000  0.80960000  1.0
  H  H335  1  0.39470000  0.89140000  0.84310000  1.0
  H  H336  1  0.43240000  0.93590000  0.89980000  1.0
  H  H337  1  0.45690000  0.95790000  0.86630000  1.0
  H  H338  1  0.14390000  0.90460000  0.03890000  1.0
  H  H339  1  0.10520000  0.93120000  0.03980000  1.0
  H  H340  1  0.37460000  0.95770000  0.26560000  1.0
  H  H341  1  0.32770000  0.95910000  0.27220000  1.0
  H  H342  1  0.58080000  0.91330000  0.19040000  1.0
  H  H343  1  0.60530000  0.89140000  0.15690000  1.0
  H  H344  1  0.56760000  0.93590000  0.10020000  1.0
  H  H345  1  0.54310000  0.95790000  0.13370000  1.0
  H  H346  1  0.85610000  0.90460000  0.96110000  1.0
  H  H347  1  0.89480000  0.93120000  0.96020000  1.0
  H  H348  1  0.62540000  0.04230000  0.26560000  1.0
  H  H349  1  0.67230000  0.04090000  0.27220000  1.0
  H  H350  1  0.41920000  0.08670000  0.19040000  1.0
  H  H351  1  0.39470000  0.10860000  0.15690000  1.0
  H  H352  1  0.43240000  0.06410000  0.10020000  1.0
  H  H353  1  0.45690000  0.04210000  0.13370000  1.0
  H  H354  1  0.14390000  0.09540000  0.96110000  1.0
  H  H355  1  0.10520000  0.06880000  0.96020000  1.0
  H  H356  1  0.37460000  0.04230000  0.73440000  1.0
  H  H357  1  0.32770000  0.04090000  0.72780000  1.0
  H  H358  1  0.58080000  0.08670000  0.80960000  1.0
  H  H359  1  0.60530000  0.10860000  0.84310000  1.0
  H  H360  1  0.56760000  0.06410000  0.89980000  1.0
  H  H361  1  0.54310000  0.04210000  0.86630000  1.0
  H  H362  1  0.85610000  0.09540000  0.03890000  1.0
  H  H363  1  0.89480000  0.06880000  0.03980000  1.0
  H  H364  1  0.12540000  0.23440000  0.54230000  1.0
  H  H365  1  0.17230000  0.22780000  0.54090000  1.0
  H  H366  1  0.91920000  0.30960000  0.58670000  1.0
  H  H367  1  0.89470000  0.34310000  0.60860000  1.0
  H  H368  1  0.93240000  0.39980000  0.56410000  1.0
  H  H369  1  0.95690000  0.36630000  0.54210000  1.0
  H  H370  1  0.64390000  0.53890000  0.59540000  1.0
  H  H371  1  0.60520000  0.53980000  0.56880000  1.0
  H  H372  1  0.87460000  0.76560000  0.54230000  1.0
  H  H373  1  0.82770000  0.77220000  0.54090000  1.0
  H  H374  1  0.08080000  0.69040000  0.58670000  1.0
  H  H375  1  0.10530000  0.65690000  0.60860000  1.0
  H  H376  1  0.06760000  0.60020000  0.56410000  1.0
  H  H377  1  0.04310000  0.63370000  0.54210000  1.0
  H  H378  1  0.35610000  0.46110000  0.59540000  1.0
  H  H379  1  0.39480000  0.46020000  0.56880000  1.0
  H  H380  1  0.12540000  0.76560000  0.45770000  1.0
  H  H381  1  0.17230000  0.77220000  0.45910000  1.0
  H  H382  1  0.91920000  0.69040000  0.41330000  1.0
  H  H383  1  0.89470000  0.65690000  0.39140000  1.0
  H  H384  1  0.93240000  0.60020000  0.43590000  1.0
  H  H385  1  0.95690000  0.63370000  0.45790000  1.0
  H  H386  1  0.64390000  0.46110000  0.40460000  1.0
  H  H387  1  0.60520000  0.46020000  0.43120000  1.0
  H  H388  1  0.87460000  0.23440000  0.45770000  1.0
  H  H389  1  0.82770000  0.22780000  0.45910000  1.0
  H  H390  1  0.08080000  0.30960000  0.41330000  1.0
  H  H391  1  0.10530000  0.34310000  0.39140000  1.0
  H  H392  1  0.06760000  0.39980000  0.43590000  1.0
  H  H393  1  0.04310000  0.36630000  0.45790000  1.0
  H  H394  1  0.35610000  0.53890000  0.40460000  1.0
  H  H395  1  0.39480000  0.53980000  0.43120000  1.0
  H  H396  1  0.23440000  0.45770000  0.87460000  1.0
  H  H397  1  0.22780000  0.45910000  0.82770000  1.0
  H  H398  1  0.30960000  0.41330000  0.08080000  1.0
  H  H399  1  0.34310000  0.39140000  0.10530000  1.0
  H  H400  1  0.39980000  0.43590000  0.06760000  1.0
  H  H401  1  0.36630000  0.45790000  0.04310000  1.0
  H  H402  1  0.53890000  0.40460000  0.35610000  1.0
  H  H403  1  0.53980000  0.43120000  0.39480000  1.0
  H  H404  1  0.76560000  0.45770000  0.12540000  1.0
  H  H405  1  0.77220000  0.45910000  0.17230000  1.0
  H  H406  1  0.69040000  0.41330000  0.91920000  1.0
  H  H407  1  0.65690000  0.39140000  0.89470000  1.0
  H  H408  1  0.60020000  0.43590000  0.93240000  1.0
  H  H409  1  0.63370000  0.45790000  0.95690000  1.0
  H  H410  1  0.46110000  0.40460000  0.64390000  1.0
  H  H411  1  0.46020000  0.43120000  0.60520000  1.0
  H  H412  1  0.76560000  0.54230000  0.87460000  1.0
  H  H413  1  0.77220000  0.54090000  0.82770000  1.0
  H  H414  1  0.69040000  0.58670000  0.08080000  1.0
  H  H415  1  0.65690000  0.60860000  0.10530000  1.0
  H  H416  1  0.60020000  0.56410000  0.06760000  1.0
  H  H417  1  0.63370000  0.54210000  0.04310000  1.0
  H  H418  1  0.46110000  0.59540000  0.35610000  1.0
  H  H419  1  0.46020000  0.56880000  0.39480000  1.0
  H  H420  1  0.23440000  0.54230000  0.12540000  1.0
  H  H421  1  0.22780000  0.54090000  0.17230000  1.0
  H  H422  1  0.30960000  0.58670000  0.91920000  1.0
  H  H423  1  0.34310000  0.60860000  0.89470000  1.0
  H  H424  1  0.39980000  0.56410000  0.93240000  1.0
  H  H425  1  0.36630000  0.54210000  0.95690000  1.0
  H  H426  1  0.53890000  0.59540000  0.64390000  1.0
  H  H427  1  0.53980000  0.56880000  0.60520000  1.0
  H  H428  1  0.45770000  0.12540000  0.76560000  1.0
  H  H429  1  0.45910000  0.17230000  0.77220000  1.0
  H  H430  1  0.41330000  0.91920000  0.69040000  1.0
  H  H431  1  0.39140000  0.89470000  0.65690000  1.0
  H  H432  1  0.43590000  0.93240000  0.60020000  1.0
  H  H433  1  0.45790000  0.95690000  0.63370000  1.0
  H  H434  1  0.40460000  0.64390000  0.46110000  1.0
  H  H435  1  0.43120000  0.60520000  0.46020000  1.0
  H  H436  1  0.45770000  0.87460000  0.23440000  1.0
  H  H437  1  0.45910000  0.82770000  0.22780000  1.0
  H  H438  1  0.41330000  0.08080000  0.30960000  1.0
  H  H439  1  0.39140000  0.10530000  0.34310000  1.0
  H  H440  1  0.43590000  0.06760000  0.39980000  1.0
  H  H441  1  0.45790000  0.04310000  0.36630000  1.0
  H  H442  1  0.40460000  0.35610000  0.53890000  1.0
  H  H443  1  0.43120000  0.39480000  0.53980000  1.0
  H  H444  1  0.54230000  0.12540000  0.23440000  1.0
  H  H445  1  0.54090000  0.17230000  0.22780000  1.0
  H  H446  1  0.58670000  0.91920000  0.30960000  1.0
  H  H447  1  0.60860000  0.89470000  0.34310000  1.0
  H  H448  1  0.56410000  0.93240000  0.39980000  1.0
  H  H449  1  0.54210000  0.95690000  0.36630000  1.0
  H  H450  1  0.59540000  0.64390000  0.53890000  1.0
  H  H451  1  0.56880000  0.60520000  0.53980000  1.0
  H  H452  1  0.54230000  0.87460000  0.76560000  1.0
  H  H453  1  0.54090000  0.82770000  0.77220000  1.0
  H  H454  1  0.58670000  0.08080000  0.69040000  1.0
  H  H455  1  0.60860000  0.10530000  0.65690000  1.0
  H  H456  1  0.56410000  0.06760000  0.60020000  1.0
  H  H457  1  0.54210000  0.04310000  0.63370000  1.0
  H  H458  1  0.59540000  0.35610000  0.46110000  1.0
  H  H459  1  0.56880000  0.39480000  0.46020000  1.0
  C  C460  1  0.26600000  0.36520000  0.02590000  1.0
  C  C461  1  0.27070000  0.33770000  0.02500000  1.0
  C  C462  1  0.29520000  0.23080000  0.02190000  1.0
  C  C463  1  0.18690000  0.54600000  0.04620000  1.0
  C  C464  1  0.16540000  0.55950000  0.06220000  1.0
  C  C465  1  0.17235000  0.57820000  0.08210000  1.0
  C  C466  1  0.15230000  0.59290000  0.09530000  1.0
  C  C467  1  0.12520000  0.58890000  0.08850000  1.0
  C  C468  1  0.11826000  0.57020000  0.06860000  1.0
  C  C469  1  0.13840000  0.55550000  0.05550000  1.0
  C  C470  1  0.10430000  0.60520000  0.10160000  1.0
  C  C471  1  0.08760000  0.61900000  0.11180000  1.0
  C  C472  1  0.06660000  0.63700000  0.12280000  1.0
  C  C473  1  0.05680000  0.63170000  0.14860000  1.0
  C  C474  1  0.03640000  0.64780000  0.15960000  1.0
  C  C475  1  0.02595000  0.66930000  0.14460000  1.0
  C  C476  1  0.03580000  0.67460000  0.11880000  1.0
  C  C477  1  0.05610000  0.65840000  0.10790000  1.0
  C  C478  1  0.02130000  0.73320000  0.14270000  1.0
  C  C479  1  0.02130000  0.75960000  0.13510000  1.0
  C  C480  1  0.97640000  0.86210000  0.08630000  1.0
  C  C481  1  0.97680000  0.88660000  0.07260000  1.0
  C  C482  1  0.02280000  0.69750000  0.20400000  1.0
  C  C483  1  0.73400000  0.63480000  0.02590000  1.0
  C  C484  1  0.72930000  0.66230000  0.02500000  1.0
  C  C485  1  0.70480000  0.76920000  0.02190000  1.0
  C  C486  1  0.81310000  0.45400000  0.04620000  1.0
  C  C487  1  0.83460000  0.44050000  0.06220000  1.0
  C  C488  1  0.82765000  0.42180000  0.08210000  1.0
  C  C489  1  0.84770000  0.40710000  0.09530000  1.0
  C  C490  1  0.87480000  0.41110000  0.08850000  1.0
  C  C491  1  0.88174000  0.42980000  0.06860000  1.0
  C  C492  1  0.86160000  0.44450000  0.05550000  1.0
  C  C493  1  0.89570000  0.39480000  0.10160000  1.0
  C  C494  1  0.91240000  0.38100000  0.11180000  1.0
  C  C495  1  0.93340000  0.36300000  0.12280000  1.0
  C  C496  1  0.94320000  0.36830000  0.14860000  1.0
  C  C497  1  0.96360000  0.35220000  0.15960000  1.0
  C  C498  1  0.97405000  0.33070000  0.14460000  1.0
  C  C499  1  0.96420000  0.32540000  0.11880000  1.0
  C  C500  1  0.94390000  0.34160000  0.10790000  1.0
  C  C501  1  0.97870000  0.26680000  0.14270000  1.0
  C  C502  1  0.97870000  0.24040000  0.13510000  1.0
  C  C503  1  0.02360000  0.13790000  0.08630000  1.0
  C  C504  1  0.02320000  0.11340000  0.07260000  1.0
  C  C505  1  0.97720000  0.30250000  0.20400000  1.0
  C  C506  1  0.73400000  0.36520000  0.97410000  1.0
  C  C507  1  0.72930000  0.33770000  0.97500000  1.0
  C  C508  1  0.70480000  0.23080000  0.97810000  1.0
  C  C509  1  0.81310000  0.54600000  0.95380000  1.0
  C  C510  1  0.83460000  0.55950000  0.93780000  1.0
  C  C511  1  0.82765000  0.57820000  0.91790000  1.0
  C  C512  1  0.84770000  0.59290000  0.90470000  1.0
  C  C513  1  0.87480000  0.58890000  0.91150000  1.0
  C  C514  1  0.88174000  0.57020000  0.93140000  1.0
  C  C515  1  0.86160000  0.55550000  0.94450000  1.0
  C  C516  1  0.89570000  0.60520000  0.89840000  1.0
  C  C517  1  0.91240000  0.61900000  0.88820000  1.0
  C  C518  1  0.93340000  0.63700000  0.87720000  1.0
  C  C519  1  0.94320000  0.63170000  0.85140000  1.0
  C  C520  1  0.96360000  0.64780000  0.84040000  1.0
  C  C521  1  0.97405000  0.66930000  0.85540000  1.0
  C  C522  1  0.96420000  0.67460000  0.88120000  1.0
  C  C523  1  0.94390000  0.65840000  0.89210000  1.0
  C  C524  1  0.97870000  0.73320000  0.85730000  1.0
  C  C525  1  0.97870000  0.75960000  0.86490000  1.0
  C  C526  1  0.02360000  0.86210000  0.91370000  1.0
  C  C527  1  0.02320000  0.88660000  0.92740000  1.0
  C  C528  1  0.97720000  0.69750000  0.79600000  1.0
  C  C529  1  0.26600000  0.63480000  0.97410000  1.0
  C  C530  1  0.27070000  0.66230000  0.97500000  1.0
  C  C531  1  0.29520000  0.76920000  0.97810000  1.0
  C  C532  1  0.18690000  0.45400000  0.95380000  1.0
  C  C533  1  0.16540000  0.44050000  0.93780000  1.0
  C  C534  1  0.17235000  0.42180000  0.91790000  1.0
  C  C535  1  0.15230000  0.40710000  0.90470000  1.0
  C  C536  1  0.12520000  0.41110000  0.91150000  1.0
  C  C537  1  0.11826000  0.42980000  0.93140000  1.0
  C  C538  1  0.13840000  0.44450000  0.94450000  1.0
  C  C539  1  0.10430000  0.39480000  0.89840000  1.0
  C  C540  1  0.08760000  0.38100000  0.88820000  1.0
  C  C541  1  0.06660000  0.36300000  0.87720000  1.0
  C  C542  1  0.05680000  0.36830000  0.85140000  1.0
  C  C543  1  0.03640000  0.35220000  0.84040000  1.0
  C  C544  1  0.02595000  0.33070000  0.85540000  1.0
  C  C545  1  0.03580000  0.32540000  0.88120000  1.0
  C  C546  1  0.05610000  0.34160000  0.89210000  1.0
  C  C547  1  0.02130000  0.26680000  0.85730000  1.0
  C  C548  1  0.02130000  0.24040000  0.86490000  1.0
  C  C549  1  0.97640000  0.13790000  0.91370000  1.0
  C  C550  1  0.97680000  0.11340000  0.92740000  1.0
  C  C551  1  0.02280000  0.30250000  0.79600000  1.0
  C  C552  1  0.02590000  0.26600000  0.36520000  1.0
  C  C553  1  0.02500000  0.27070000  0.33770000  1.0
  C  C554  1  0.02190000  0.29520000  0.23080000  1.0
  C  C555  1  0.04620000  0.18690000  0.54600000  1.0
  C  C556  1  0.06220000  0.16540000  0.55950000  1.0
  C  C557  1  0.08210000  0.17235000  0.57820000  1.0
  C  C558  1  0.09530000  0.15230000  0.59290000  1.0
  C  C559  1  0.08850000  0.12520000  0.58890000  1.0
  C  C560  1  0.06860000  0.11826000  0.57020000  1.0
  C  C561  1  0.05550000  0.13840000  0.55550000  1.0
  C  C562  1  0.10160000  0.10430000  0.60520000  1.0
  C  C563  1  0.11180000  0.08760000  0.61900000  1.0
  C  C564  1  0.12280000  0.06660000  0.63700000  1.0
  C  C565  1  0.14860000  0.05680000  0.63170000  1.0
  C  C566  1  0.15960000  0.03640000  0.64780000  1.0
  C  C567  1  0.14460000  0.02595000  0.66930000  1.0
  C  C568  1  0.11880000  0.03580000  0.67460000  1.0
  C  C569  1  0.10790000  0.05610000  0.65840000  1.0
  C  C570  1  0.14270000  0.02130000  0.73320000  1.0
  C  C571  1  0.13510000  0.02130000  0.75960000  1.0
  C  C572  1  0.08630000  0.97640000  0.86210000  1.0
  C  C573  1  0.07260000  0.97680000  0.88660000  1.0
  C  C574  1  0.20400000  0.02280000  0.69750000  1.0
  C  C575  1  0.02590000  0.73400000  0.63480000  1.0
  C  C576  1  0.02500000  0.72930000  0.66230000  1.0
  C  C577  1  0.02190000  0.70480000  0.76920000  1.0
  C  C578  1  0.04620000  0.81310000  0.45400000  1.0
  C  C579  1  0.06220000  0.83460000  0.44050000  1.0
  C  C580  1  0.08210000  0.82765000  0.42180000  1.0
  C  C581  1  0.09530000  0.84770000  0.40710000  1.0
  C  C582  1  0.08850000  0.87480000  0.41110000  1.0
  C  C583  1  0.06860000  0.88174000  0.42980000  1.0
  C  C584  1  0.05550000  0.86160000  0.44450000  1.0
  C  C585  1  0.10160000  0.89570000  0.39480000  1.0
  C  C586  1  0.11180000  0.91240000  0.38100000  1.0
  C  C587  1  0.12280000  0.93340000  0.36300000  1.0
  C  C588  1  0.14860000  0.94320000  0.36830000  1.0
  C  C589  1  0.15960000  0.96360000  0.35220000  1.0
  C  C590  1  0.14460000  0.97405000  0.33070000  1.0
  C  C591  1  0.11880000  0.96420000  0.32540000  1.0
  C  C592  1  0.10790000  0.94390000  0.34160000  1.0
  C  C593  1  0.14270000  0.97870000  0.26680000  1.0
  C  C594  1  0.13510000  0.97870000  0.24040000  1.0
  C  C595  1  0.08630000  0.02360000  0.13790000  1.0
  C  C596  1  0.07260000  0.02320000  0.11340000  1.0
  C  C597  1  0.20400000  0.97720000  0.30250000  1.0
  C  C598  1  0.97410000  0.73400000  0.36520000  1.0
  C  C599  1  0.97500000  0.72930000  0.33770000  1.0
  C  C600  1  0.97810000  0.70480000  0.23080000  1.0
  C  C601  1  0.95380000  0.81310000  0.54600000  1.0
  C  C602  1  0.93780000  0.83460000  0.55950000  1.0
  C  C603  1  0.91790000  0.82765000  0.57820000  1.0
  C  C604  1  0.90470000  0.84770000  0.59290000  1.0
  C  C605  1  0.91150000  0.87480000  0.58890000  1.0
  C  C606  1  0.93140000  0.88174000  0.57020000  1.0
  C  C607  1  0.94450000  0.86160000  0.55550000  1.0
  C  C608  1  0.89840000  0.89570000  0.60520000  1.0
  C  C609  1  0.88820000  0.91240000  0.61900000  1.0
  C  C610  1  0.87720000  0.93340000  0.63700000  1.0
  C  C611  1  0.85140000  0.94320000  0.63170000  1.0
  C  C612  1  0.84040000  0.96360000  0.64780000  1.0
  C  C613  1  0.85540000  0.97405000  0.66930000  1.0
  C  C614  1  0.88120000  0.96420000  0.67460000  1.0
  C  C615  1  0.89210000  0.94390000  0.65840000  1.0
  C  C616  1  0.85730000  0.97870000  0.73320000  1.0
  C  C617  1  0.86490000  0.97870000  0.75960000  1.0
  C  C618  1  0.91370000  0.02360000  0.86210000  1.0
  C  C619  1  0.92740000  0.02320000  0.88660000  1.0
  C  C620  1  0.79600000  0.97720000  0.69750000  1.0
  C  C621  1  0.97410000  0.26600000  0.63480000  1.0
  C  C622  1  0.97500000  0.27070000  0.66230000  1.0
  C  C623  1  0.97810000  0.29520000  0.76920000  1.0
  C  C624  1  0.95380000  0.18690000  0.45400000  1.0
  C  C625  1  0.93780000  0.16540000  0.44050000  1.0
  C  C626  1  0.91790000  0.17235000  0.42180000  1.0
  C  C627  1  0.90470000  0.15230000  0.40710000  1.0
  C  C628  1  0.91150000  0.12520000  0.41110000  1.0
  C  C629  1  0.93140000  0.11826000  0.42980000  1.0
  C  C630  1  0.94450000  0.13840000  0.44450000  1.0
  C  C631  1  0.89840000  0.10430000  0.39480000  1.0
  C  C632  1  0.88820000  0.08760000  0.38100000  1.0
  C  C633  1  0.87720000  0.06660000  0.36300000  1.0
  C  C634  1  0.85140000  0.05680000  0.36830000  1.0
  C  C635  1  0.84040000  0.03640000  0.35220000  1.0
  C  C636  1  0.85540000  0.02595000  0.33070000  1.0
  C  C637  1  0.88120000  0.03580000  0.32540000  1.0
  C  C638  1  0.89210000  0.05610000  0.34160000  1.0
  C  C639  1  0.85730000  0.02130000  0.26680000  1.0
  C  C640  1  0.86490000  0.02130000  0.24040000  1.0
  C  C641  1  0.91370000  0.97640000  0.13790000  1.0
  C  C642  1  0.92740000  0.97680000  0.11340000  1.0
  C  C643  1  0.79600000  0.02280000  0.30250000  1.0
  C  C644  1  0.36520000  0.02590000  0.26600000  1.0
  C  C645  1  0.33770000  0.02500000  0.27070000  1.0
  C  C646  1  0.23080000  0.02190000  0.29520000  1.0
  C  C647  1  0.54600000  0.04620000  0.18690000  1.0
  C  C648  1  0.55950000  0.06220000  0.16540000  1.0
  C  C649  1  0.57820000  0.08210000  0.17235000  1.0
  C  C650  1  0.59290000  0.09530000  0.15230000  1.0
  C  C651  1  0.58890000  0.08850000  0.12520000  1.0
  C  C652  1  0.57020000  0.06860000  0.11826000  1.0
  C  C653  1  0.55550000  0.05550000  0.13840000  1.0
  C  C654  1  0.60520000  0.10160000  0.10430000  1.0
  C  C655  1  0.61900000  0.11180000  0.08760000  1.0
  C  C656  1  0.63700000  0.12280000  0.06660000  1.0
  C  C657  1  0.63170000  0.14860000  0.05680000  1.0
  C  C658  1  0.64780000  0.15960000  0.03640000  1.0
  C  C659  1  0.66930000  0.14460000  0.02595000  1.0
  C  C660  1  0.67460000  0.11880000  0.03580000  1.0
  C  C661  1  0.65840000  0.10790000  0.05610000  1.0
  C  C662  1  0.73320000  0.14270000  0.02130000  1.0
  C  C663  1  0.75960000  0.13510000  0.02130000  1.0
  C  C664  1  0.86210000  0.08630000  0.97640000  1.0
  C  C665  1  0.88660000  0.07260000  0.97680000  1.0
  C  C666  1  0.69750000  0.20400000  0.02280000  1.0
  C  C667  1  0.63480000  0.02590000  0.73400000  1.0
  C  C668  1  0.66230000  0.02500000  0.72930000  1.0
  C  C669  1  0.76920000  0.02190000  0.70480000  1.0
  C  C670  1  0.45400000  0.04620000  0.81310000  1.0
  C  C671  1  0.44050000  0.06220000  0.83460000  1.0
  C  C672  1  0.42180000  0.08210000  0.82765000  1.0
  C  C673  1  0.40710000  0.09530000  0.84770000  1.0
  C  C674  1  0.41110000  0.08850000  0.87480000  1.0
  C  C675  1  0.42980000  0.06860000  0.88174000  1.0
  C  C676  1  0.44450000  0.05550000  0.86160000  1.0
  C  C677  1  0.39480000  0.10160000  0.89570000  1.0
  C  C678  1  0.38100000  0.11180000  0.91240000  1.0
  C  C679  1  0.36300000  0.12280000  0.93340000  1.0
  C  C680  1  0.36830000  0.14860000  0.94320000  1.0
  C  C681  1  0.35220000  0.15960000  0.96360000  1.0
  C  C682  1  0.33070000  0.14460000  0.97405000  1.0
  C  C683  1  0.32540000  0.11880000  0.96420000  1.0
  C  C684  1  0.34160000  0.10790000  0.94390000  1.0
  C  C685  1  0.26680000  0.14270000  0.97870000  1.0
  C  C686  1  0.24040000  0.13510000  0.97870000  1.0
  C  C687  1  0.13790000  0.08630000  0.02360000  1.0
  C  C688  1  0.11340000  0.07260000  0.02320000  1.0
  C  C689  1  0.30250000  0.20400000  0.97720000  1.0
  C  C690  1  0.36520000  0.97410000  0.73400000  1.0
  C  C691  1  0.33770000  0.97500000  0.72930000  1.0
  C  C692  1  0.23080000  0.97810000  0.70480000  1.0
  C  C693  1  0.54600000  0.95380000  0.81310000  1.0
  C  C694  1  0.55950000  0.93780000  0.83460000  1.0
  C  C695  1  0.57820000  0.91790000  0.82765000  1.0
  C  C696  1  0.59290000  0.90470000  0.84770000  1.0
  C  C697  1  0.58890000  0.91150000  0.87480000  1.0
  C  C698  1  0.57020000  0.93140000  0.88174000  1.0
  C  C699  1  0.55550000  0.94450000  0.86160000  1.0
  C  C700  1  0.60520000  0.89840000  0.89570000  1.0
  C  C701  1  0.61900000  0.88820000  0.91240000  1.0
  C  C702  1  0.63700000  0.87720000  0.93340000  1.0
  C  C703  1  0.63170000  0.85140000  0.94320000  1.0
  C  C704  1  0.64780000  0.84040000  0.96360000  1.0
  C  C705  1  0.66930000  0.85540000  0.97405000  1.0
  C  C706  1  0.67460000  0.88120000  0.96420000  1.0
  C  C707  1  0.65840000  0.89210000  0.94390000  1.0
  C  C708  1  0.73320000  0.85730000  0.97870000  1.0
  C  C709  1  0.75960000  0.86490000  0.97870000  1.0
  C  C710  1  0.86210000  0.91370000  0.02360000  1.0
  C  C711  1  0.88660000  0.92740000  0.02320000  1.0
  C  C712  1  0.69750000  0.79600000  0.97720000  1.0
  C  C713  1  0.63480000  0.97410000  0.26600000  1.0
  C  C714  1  0.66230000  0.97500000  0.27070000  1.0
  C  C715  1  0.76920000  0.97810000  0.29520000  1.0
  C  C716  1  0.45400000  0.95380000  0.18690000  1.0
  C  C717  1  0.44050000  0.93780000  0.16540000  1.0
  C  C718  1  0.42180000  0.91790000  0.17235000  1.0
  C  C719  1  0.40710000  0.90470000  0.15230000  1.0
  C  C720  1  0.41110000  0.91150000  0.12520000  1.0
  C  C721  1  0.42980000  0.93140000  0.11826000  1.0
  C  C722  1  0.44450000  0.94450000  0.13840000  1.0
  C  C723  1  0.39480000  0.89840000  0.10430000  1.0
  C  C724  1  0.38100000  0.88820000  0.08760000  1.0
  C  C725  1  0.36300000  0.87720000  0.06660000  1.0
  C  C726  1  0.36830000  0.85140000  0.05680000  1.0
  C  C727  1  0.35220000  0.84040000  0.03640000  1.0
  C  C728  1  0.33070000  0.85540000  0.02595000  1.0
  C  C729  1  0.32540000  0.88120000  0.03580000  1.0
  C  C730  1  0.34160000  0.89210000  0.05610000  1.0
  C  C731  1  0.26680000  0.85730000  0.02130000  1.0
  C  C732  1  0.24040000  0.86490000  0.02130000  1.0
  C  C733  1  0.13790000  0.91370000  0.97640000  1.0
  C  C734  1  0.11340000  0.92740000  0.97680000  1.0
  C  C735  1  0.30250000  0.79600000  0.02280000  1.0
  C  C736  1  0.86520000  0.76600000  0.47410000  1.0
  C  C737  1  0.83770000  0.77070000  0.47500000  1.0
  C  C738  1  0.73080000  0.79520000  0.47810000  1.0
  C  C739  1  0.04600000  0.68690000  0.45380000  1.0
  C  C740  1  0.05950000  0.66540000  0.43780000  1.0
  C  C741  1  0.07820000  0.67235000  0.41790000  1.0
  C  C742  1  0.09290000  0.65230000  0.40470000  1.0
  C  C743  1  0.08890000  0.62520000  0.41150000  1.0
  C  C744  1  0.07020000  0.61826000  0.43140000  1.0
  C  C745  1  0.05550000  0.63840000  0.44450000  1.0
  C  C746  1  0.10520000  0.60430000  0.39840000  1.0
  C  C747  1  0.11900000  0.58760000  0.38820000  1.0
  C  C748  1  0.13700000  0.56660000  0.37720000  1.0
  C  C749  1  0.13170000  0.55680000  0.35140000  1.0
  C  C750  1  0.14780000  0.53640000  0.34040000  1.0
  C  C751  1  0.16930000  0.52595000  0.35540000  1.0
  C  C752  1  0.17460000  0.53580000  0.38120000  1.0
  C  C753  1  0.15840000  0.55610000  0.39210000  1.0
  C  C754  1  0.23320000  0.52130000  0.35730000  1.0
  C  C755  1  0.25960000  0.52130000  0.36490000  1.0
  C  C756  1  0.36210000  0.47640000  0.41370000  1.0
  C  C757  1  0.38660000  0.47680000  0.42740000  1.0
  C  C758  1  0.19750000  0.52280000  0.29600000  1.0
  C  C759  1  0.13480000  0.23400000  0.47410000  1.0
  C  C760  1  0.16230000  0.22930000  0.47500000  1.0
  C  C761  1  0.26920000  0.20480000  0.47810000  1.0
  C  C762  1  0.95400000  0.31310000  0.45380000  1.0
  C  C763  1  0.94050000  0.33460000  0.43780000  1.0
  C  C764  1  0.92180000  0.32765000  0.41790000  1.0
  C  C765  1  0.90710000  0.34770000  0.40470000  1.0
  C  C766  1  0.91110000  0.37480000  0.41150000  1.0
  C  C767  1  0.92980000  0.38174000  0.43140000  1.0
  C  C768  1  0.94450000  0.36160000  0.44450000  1.0
  C  C769  1  0.89480000  0.39570000  0.39840000  1.0
  C  C770  1  0.88100000  0.41240000  0.38820000  1.0
  C  C771  1  0.86300000  0.43340000  0.37720000  1.0
  C  C772  1  0.86830000  0.44320000  0.35140000  1.0
  C  C773  1  0.85220000  0.46360000  0.34040000  1.0
  C  C774  1  0.83070000  0.47405000  0.35540000  1.0
  C  C775  1  0.82540000  0.46420000  0.38120000  1.0
  C  C776  1  0.84160000  0.44390000  0.39210000  1.0
  C  C777  1  0.76680000  0.47870000  0.35730000  1.0
  C  C778  1  0.74040000  0.47870000  0.36490000  1.0
  C  C779  1  0.63790000  0.52360000  0.41370000  1.0
  C  C780  1  0.61340000  0.52320000  0.42740000  1.0
  C  C781  1  0.80250000  0.47720000  0.29600000  1.0
  C  C782  1  0.86520000  0.23400000  0.52590000  1.0
  C  C783  1  0.83770000  0.22930000  0.52500000  1.0
  C  C784  1  0.73080000  0.20480000  0.52190000  1.0
  C  C785  1  0.04600000  0.31310000  0.54620000  1.0
  C  C786  1  0.05950000  0.33460000  0.56220000  1.0
  C  C787  1  0.07820000  0.32765000  0.58210000  1.0
  C  C788  1  0.09290000  0.34770000  0.59530000  1.0
  C  C789  1  0.08890000  0.37480000  0.58850000  1.0
  C  C790  1  0.07020000  0.38174000  0.56860000  1.0
  C  C791  1  0.05550000  0.36160000  0.55550000  1.0
  C  C792  1  0.10520000  0.39570000  0.60160000  1.0
  C  C793  1  0.11900000  0.41240000  0.61180000  1.0
  C  C794  1  0.13700000  0.43340000  0.62280000  1.0
  C  C795  1  0.13170000  0.44320000  0.64860000  1.0
  C  C796  1  0.14780000  0.46360000  0.65960000  1.0
  C  C797  1  0.16930000  0.47405000  0.64460000  1.0
  C  C798  1  0.17460000  0.46420000  0.61880000  1.0
  C  C799  1  0.15840000  0.44390000  0.60790000  1.0
  C  C800  1  0.23320000  0.47870000  0.64270000  1.0
  C  C801  1  0.25960000  0.47870000  0.63510000  1.0
  C  C802  1  0.36210000  0.52360000  0.58630000  1.0
  C  C803  1  0.38660000  0.52320000  0.57260000  1.0
  C  C804  1  0.19750000  0.47720000  0.70400000  1.0
  C  C805  1  0.13480000  0.76600000  0.52590000  1.0
  C  C806  1  0.16230000  0.77070000  0.52500000  1.0
  C  C807  1  0.26920000  0.79520000  0.52190000  1.0
  C  C808  1  0.95400000  0.68690000  0.54620000  1.0
  C  C809  1  0.94050000  0.66540000  0.56220000  1.0
  C  C810  1  0.92180000  0.67235000  0.58210000  1.0
  C  C811  1  0.90710000  0.65230000  0.59530000  1.0
  C  C812  1  0.91110000  0.62520000  0.58850000  1.0
  C  C813  1  0.92980000  0.61826000  0.56860000  1.0
  C  C814  1  0.94450000  0.63840000  0.55550000  1.0
  C  C815  1  0.89480000  0.60430000  0.60160000  1.0
  C  C816  1  0.88100000  0.58760000  0.61180000  1.0
  C  C817  1  0.86300000  0.56660000  0.62280000  1.0
  C  C818  1  0.86830000  0.55680000  0.64860000  1.0
  C  C819  1  0.85220000  0.53640000  0.65960000  1.0
  C  C820  1  0.83070000  0.52595000  0.64460000  1.0
  C  C821  1  0.82540000  0.53580000  0.61880000  1.0
  C  C822  1  0.84160000  0.55610000  0.60790000  1.0
  C  C823  1  0.76680000  0.52130000  0.64270000  1.0
  C  C824  1  0.74040000  0.52130000  0.63510000  1.0
  C  C825  1  0.63790000  0.47640000  0.58630000  1.0
  C  C826  1  0.61340000  0.47680000  0.57260000  1.0
  C  C827  1  0.80250000  0.52280000  0.70400000  1.0
  C  C828  1  0.76600000  0.52590000  0.13480000  1.0
  C  C829  1  0.77070000  0.52500000  0.16230000  1.0
  C  C830  1  0.79520000  0.52190000  0.26920000  1.0
  C  C831  1  0.68690000  0.54620000  0.95400000  1.0
  C  C832  1  0.66540000  0.56220000  0.94050000  1.0
  C  C833  1  0.67235000  0.58210000  0.92180000  1.0
  C  C834  1  0.65230000  0.59530000  0.90710000  1.0
  C  C835  1  0.62520000  0.58850000  0.91110000  1.0
  C  C836  1  0.61826000  0.56860000  0.92980000  1.0
  C  C837  1  0.63840000  0.55550000  0.94450000  1.0
  C  C838  1  0.60430000  0.60160000  0.89480000  1.0
  C  C839  1  0.58760000  0.61180000  0.88100000  1.0
  C  C840  1  0.56660000  0.62280000  0.86300000  1.0
  C  C841  1  0.55680000  0.64860000  0.86830000  1.0
  C  C842  1  0.53640000  0.65960000  0.85220000  1.0
  C  C843  1  0.52595000  0.64460000  0.83070000  1.0
  C  C844  1  0.53580000  0.61880000  0.82540000  1.0
  C  C845  1  0.55610000  0.60790000  0.84160000  1.0
  C  C846  1  0.52130000  0.64270000  0.76680000  1.0
  C  C847  1  0.52130000  0.63510000  0.74040000  1.0
  C  C848  1  0.47640000  0.58630000  0.63790000  1.0
  C  C849  1  0.47680000  0.57260000  0.61340000  1.0
  C  C850  1  0.52280000  0.70400000  0.80250000  1.0
  C  C851  1  0.23400000  0.52590000  0.86520000  1.0
  C  C852  1  0.22930000  0.52500000  0.83770000  1.0
  C  C853  1  0.20480000  0.52190000  0.73080000  1.0
  C  C854  1  0.31310000  0.54620000  0.04600000  1.0
  C  C855  1  0.33460000  0.56220000  0.05950000  1.0
  C  C856  1  0.32765000  0.58210000  0.07820000  1.0
  C  C857  1  0.34770000  0.59530000  0.09290000  1.0
  C  C858  1  0.37480000  0.58850000  0.08890000  1.0
  C  C859  1  0.38174000  0.56860000  0.07020000  1.0
  C  C860  1  0.36160000  0.55550000  0.05550000  1.0
  C  C861  1  0.39570000  0.60160000  0.10520000  1.0
  C  C862  1  0.41240000  0.61180000  0.11900000  1.0
  C  C863  1  0.43340000  0.62280000  0.13700000  1.0
  C  C864  1  0.44320000  0.64860000  0.13170000  1.0
  C  C865  1  0.46360000  0.65960000  0.14780000  1.0
  C  C866  1  0.47405000  0.64460000  0.16930000  1.0
  C  C867  1  0.46420000  0.61880000  0.17460000  1.0
  C  C868  1  0.44390000  0.60790000  0.15840000  1.0
  C  C869  1  0.47870000  0.64270000  0.23320000  1.0
  C  C870  1  0.47870000  0.63510000  0.25960000  1.0
  C  C871  1  0.52360000  0.58630000  0.36210000  1.0
  C  C872  1  0.52320000  0.57260000  0.38660000  1.0
  C  C873  1  0.47720000  0.70400000  0.19750000  1.0
  C  C874  1  0.23400000  0.47410000  0.13480000  1.0
  C  C875  1  0.22930000  0.47500000  0.16230000  1.0
  C  C876  1  0.20480000  0.47810000  0.26920000  1.0
  C  C877  1  0.31310000  0.45380000  0.95400000  1.0
  C  C878  1  0.33460000  0.43780000  0.94050000  1.0
  C  C879  1  0.32765000  0.41790000  0.92180000  1.0
  C  C880  1  0.34770000  0.40470000  0.90710000  1.0
  C  C881  1  0.37480000  0.41150000  0.91110000  1.0
  C  C882  1  0.38174000  0.43140000  0.92980000  1.0
  C  C883  1  0.36160000  0.44450000  0.94450000  1.0
  C  C884  1  0.39570000  0.39840000  0.89480000  1.0
  C  C885  1  0.41240000  0.38820000  0.88100000  1.0
  C  C886  1  0.43340000  0.37720000  0.86300000  1.0
  C  C887  1  0.44320000  0.35140000  0.86830000  1.0
  C  C888  1  0.46360000  0.34040000  0.85220000  1.0
  C  C889  1  0.47405000  0.35540000  0.83070000  1.0
  C  C890  1  0.46420000  0.38120000  0.82540000  1.0
  C  C891  1  0.44390000  0.39210000  0.84160000  1.0
  C  C892  1  0.47870000  0.35730000  0.76680000  1.0
  C  C893  1  0.47870000  0.36490000  0.74040000  1.0
  C  C894  1  0.52360000  0.41370000  0.63790000  1.0
  C  C895  1  0.52320000  0.42740000  0.61340000  1.0
  C  C896  1  0.47720000  0.29600000  0.80250000  1.0
  C  C897  1  0.76600000  0.47410000  0.86520000  1.0
  C  C898  1  0.77070000  0.47500000  0.83770000  1.0
  C  C899  1  0.79520000  0.47810000  0.73080000  1.0
  C  C900  1  0.68690000  0.45380000  0.04600000  1.0
  C  C901  1  0.66540000  0.43780000  0.05950000  1.0
  C  C902  1  0.67235000  0.41790000  0.07820000  1.0
  C  C903  1  0.65230000  0.40470000  0.09290000  1.0
  C  C904  1  0.62520000  0.41150000  0.08890000  1.0
  C  C905  1  0.61826000  0.43140000  0.07020000  1.0
  C  C906  1  0.63840000  0.44450000  0.05550000  1.0
  C  C907  1  0.60430000  0.39840000  0.10520000  1.0
  C  C908  1  0.58760000  0.38820000  0.11900000  1.0
  C  C909  1  0.56660000  0.37720000  0.13700000  1.0
  C  C910  1  0.55680000  0.35140000  0.13170000  1.0
  C  C911  1  0.53640000  0.34040000  0.14780000  1.0
  C  C912  1  0.52595000  0.35540000  0.16930000  1.0
  C  C913  1  0.53580000  0.38120000  0.17460000  1.0
  C  C914  1  0.55610000  0.39210000  0.15840000  1.0
  C  C915  1  0.52130000  0.35730000  0.23320000  1.0
  C  C916  1  0.52130000  0.36490000  0.25960000  1.0
  C  C917  1  0.47640000  0.41370000  0.36210000  1.0
  C  C918  1  0.47680000  0.42740000  0.38660000  1.0
  C  C919  1  0.52280000  0.29600000  0.19750000  1.0
  C  C920  1  0.52590000  0.86520000  0.23400000  1.0
  C  C921  1  0.52500000  0.83770000  0.22930000  1.0
  C  C922  1  0.52190000  0.73080000  0.20480000  1.0
  C  C923  1  0.54620000  0.04600000  0.31310000  1.0
  C  C924  1  0.56220000  0.05950000  0.33460000  1.0
  C  C925  1  0.58210000  0.07820000  0.32765000  1.0
  C  C926  1  0.59530000  0.09290000  0.34770000  1.0
  C  C927  1  0.58850000  0.08890000  0.37480000  1.0
  C  C928  1  0.56860000  0.07020000  0.38174000  1.0
  C  C929  1  0.55550000  0.05550000  0.36160000  1.0
  C  C930  1  0.60160000  0.10520000  0.39570000  1.0
  C  C931  1  0.61180000  0.11900000  0.41240000  1.0
  C  C932  1  0.62280000  0.13700000  0.43340000  1.0
  C  C933  1  0.64860000  0.13170000  0.44320000  1.0
  C  C934  1  0.65960000  0.14780000  0.46360000  1.0
  C  C935  1  0.64460000  0.16930000  0.47405000  1.0
  C  C936  1  0.61880000  0.17460000  0.46420000  1.0
  C  C937  1  0.60790000  0.15840000  0.44390000  1.0
  C  C938  1  0.64270000  0.23320000  0.47870000  1.0
  C  C939  1  0.63510000  0.25960000  0.47870000  1.0
  C  C940  1  0.58630000  0.36210000  0.52360000  1.0
  C  C941  1  0.57260000  0.38660000  0.52320000  1.0
  C  C942  1  0.70400000  0.19750000  0.47720000  1.0
  C  C943  1  0.52590000  0.13480000  0.76600000  1.0
  C  C944  1  0.52500000  0.16230000  0.77070000  1.0
  C  C945  1  0.52190000  0.26920000  0.79520000  1.0
  C  C946  1  0.54620000  0.95400000  0.68690000  1.0
  C  C947  1  0.56220000  0.94050000  0.66540000  1.0
  C  C948  1  0.58210000  0.92180000  0.67235000  1.0
  C  C949  1  0.59530000  0.90710000  0.65230000  1.0
  C  C950  1  0.58850000  0.91110000  0.62520000  1.0
  C  C951  1  0.56860000  0.92980000  0.61826000  1.0
  C  C952  1  0.55550000  0.94450000  0.63840000  1.0
  C  C953  1  0.60160000  0.89480000  0.60430000  1.0
  C  C954  1  0.61180000  0.88100000  0.58760000  1.0
  C  C955  1  0.62280000  0.86300000  0.56660000  1.0
  C  C956  1  0.64860000  0.86830000  0.55680000  1.0
  C  C957  1  0.65960000  0.85220000  0.53640000  1.0
  C  C958  1  0.64460000  0.83070000  0.52595000  1.0
  C  C959  1  0.61880000  0.82540000  0.53580000  1.0
  C  C960  1  0.60790000  0.84160000  0.55610000  1.0
  C  C961  1  0.64270000  0.76680000  0.52130000  1.0
  C  C962  1  0.63510000  0.74040000  0.52130000  1.0
  C  C963  1  0.58630000  0.63790000  0.47640000  1.0
  C  C964  1  0.57260000  0.61340000  0.47680000  1.0
  C  C965  1  0.70400000  0.80250000  0.52280000  1.0
  C  C966  1  0.47410000  0.86520000  0.76600000  1.0
  C  C967  1  0.47500000  0.83770000  0.77070000  1.0
  C  C968  1  0.47810000  0.73080000  0.79520000  1.0
  C  C969  1  0.45380000  0.04600000  0.68690000  1.0
  C  C970  1  0.43780000  0.05950000  0.66540000  1.0
  C  C971  1  0.41790000  0.07820000  0.67235000  1.0
  C  C972  1  0.40470000  0.09290000  0.65230000  1.0
  C  C973  1  0.41150000  0.08890000  0.62520000  1.0
  C  C974  1  0.43140000  0.07020000  0.61826000  1.0
  C  C975  1  0.44450000  0.05550000  0.63840000  1.0
  C  C976  1  0.39840000  0.10520000  0.60430000  1.0
  C  C977  1  0.38820000  0.11900000  0.58760000  1.0
  C  C978  1  0.37720000  0.13700000  0.56660000  1.0
  C  C979  1  0.35140000  0.13170000  0.55680000  1.0
  C  C980  1  0.34040000  0.14780000  0.53640000  1.0
  C  C981  1  0.35540000  0.16930000  0.52595000  1.0
  C  C982  1  0.38120000  0.17460000  0.53580000  1.0
  C  C983  1  0.39210000  0.15840000  0.55610000  1.0
  C  C984  1  0.35730000  0.23320000  0.52130000  1.0
  C  C985  1  0.36490000  0.25960000  0.52130000  1.0
  C  C986  1  0.41370000  0.36210000  0.47640000  1.0
  C  C987  1  0.42740000  0.38660000  0.47680000  1.0
  C  C988  1  0.29600000  0.19750000  0.52280000  1.0
  C  C989  1  0.47410000  0.13480000  0.23400000  1.0
  C  C990  1  0.47500000  0.16230000  0.22930000  1.0
  C  C991  1  0.47810000  0.26920000  0.20480000  1.0
  C  C992  1  0.45380000  0.95400000  0.31310000  1.0
  C  C993  1  0.43780000  0.94050000  0.33460000  1.0
  C  C994  1  0.41790000  0.92180000  0.32765000  1.0
  C  C995  1  0.40470000  0.90710000  0.34770000  1.0
  C  C996  1  0.41150000  0.91110000  0.37480000  1.0
  C  C997  1  0.43140000  0.92980000  0.38174000  1.0
  C  C998  1  0.44450000  0.94450000  0.36160000  1.0
  C  C999  1  0.39840000  0.89480000  0.39570000  1.0
  C  C1000  1  0.38820000  0.88100000  0.41240000  1.0
  C  C1001  1  0.37720000  0.86300000  0.43340000  1.0
  C  C1002  1  0.35140000  0.86830000  0.44320000  1.0
  C  C1003  1  0.34040000  0.85220000  0.46360000  1.0
  C  C1004  1  0.35540000  0.83070000  0.47405000  1.0
  C  C1005  1  0.38120000  0.82540000  0.46420000  1.0
  C  C1006  1  0.39210000  0.84160000  0.44390000  1.0
  C  C1007  1  0.35730000  0.76680000  0.47870000  1.0
  C  C1008  1  0.36490000  0.74040000  0.47870000  1.0
  C  C1009  1  0.41370000  0.63790000  0.52360000  1.0
  C  C1010  1  0.42740000  0.61340000  0.52320000  1.0
  C  C1011  1  0.29600000  0.80250000  0.47720000  1.0
  C  C1012  1  0.73400000  0.63480000  0.97410000  1.0
  C  C1013  1  0.72930000  0.66230000  0.97500000  1.0
  C  C1014  1  0.70480000  0.76920000  0.97810000  1.0
  C  C1015  1  0.81310000  0.45400000  0.95380000  1.0
  C  C1016  1  0.83460000  0.44050000  0.93780000  1.0
  C  C1017  1  0.82765000  0.42180000  0.91790000  1.0
  C  C1018  1  0.84770000  0.40710000  0.90470000  1.0
  C  C1019  1  0.87480000  0.41110000  0.91150000  1.0
  C  C1020  1  0.88174000  0.42980000  0.93140000  1.0
  C  C1021  1  0.86160000  0.44450000  0.94450000  1.0
  C  C1022  1  0.89570000  0.39480000  0.89840000  1.0
  C  C1023  1  0.91240000  0.38100000  0.88820000  1.0
  C  C1024  1  0.93340000  0.36300000  0.87720000  1.0
  C  C1025  1  0.94320000  0.36830000  0.85140000  1.0
  C  C1026  1  0.96360000  0.35220000  0.84040000  1.0
  C  C1027  1  0.97405000  0.33070000  0.85540000  1.0
  C  C1028  1  0.96420000  0.32540000  0.88120000  1.0
  C  C1029  1  0.94390000  0.34160000  0.89210000  1.0
  C  C1030  1  0.97870000  0.26680000  0.85730000  1.0
  C  C1031  1  0.97870000  0.24040000  0.86490000  1.0
  C  C1032  1  0.02360000  0.13790000  0.91370000  1.0
  C  C1033  1  0.02320000  0.11340000  0.92740000  1.0
  C  C1034  1  0.97720000  0.30250000  0.79600000  1.0
  C  C1035  1  0.26600000  0.36520000  0.97410000  1.0
  C  C1036  1  0.27070000  0.33770000  0.97500000  1.0
  C  C1037  1  0.29520000  0.23080000  0.97810000  1.0
  C  C1038  1  0.18690000  0.54600000  0.95380000  1.0
  C  C1039  1  0.16540000  0.55950000  0.93780000  1.0
  C  C1040  1  0.17235000  0.57820000  0.91790000  1.0
  C  C1041  1  0.15230000  0.59290000  0.90470000  1.0
  C  C1042  1  0.12520000  0.58890000  0.91150000  1.0
  C  C1043  1  0.11826000  0.57020000  0.93140000  1.0
  C  C1044  1  0.13840000  0.55550000  0.94450000  1.0
  C  C1045  1  0.10430000  0.60520000  0.89840000  1.0
  C  C1046  1  0.08760000  0.61900000  0.88820000  1.0
  C  C1047  1  0.06660000  0.63700000  0.87720000  1.0
  C  C1048  1  0.05680000  0.63170000  0.85140000  1.0
  C  C1049  1  0.03640000  0.64780000  0.84040000  1.0
  C  C1050  1  0.02595000  0.66930000  0.85540000  1.0
  C  C1051  1  0.03580000  0.67460000  0.88120000  1.0
  C  C1052  1  0.05610000  0.65840000  0.89210000  1.0
  C  C1053  1  0.02130000  0.73320000  0.85730000  1.0
  C  C1054  1  0.02130000  0.75960000  0.86490000  1.0
  C  C1055  1  0.97640000  0.86210000  0.91370000  1.0
  C  C1056  1  0.97680000  0.88660000  0.92740000  1.0
  C  C1057  1  0.02280000  0.69750000  0.79600000  1.0
  C  C1058  1  0.26600000  0.63480000  0.02590000  1.0
  C  C1059  1  0.27070000  0.66230000  0.02500000  1.0
  C  C1060  1  0.29520000  0.76920000  0.02190000  1.0
  C  C1061  1  0.18690000  0.45400000  0.04620000  1.0
  C  C1062  1  0.16540000  0.44050000  0.06220000  1.0
  C  C1063  1  0.17235000  0.42180000  0.08210000  1.0
  C  C1064  1  0.15230000  0.40710000  0.09530000  1.0
  C  C1065  1  0.12520000  0.41110000  0.08850000  1.0
  C  C1066  1  0.11826000  0.42980000  0.06860000  1.0
  C  C1067  1  0.13840000  0.44450000  0.05550000  1.0
  C  C1068  1  0.10430000  0.39480000  0.10160000  1.0
  C  C1069  1  0.08760000  0.38100000  0.11180000  1.0
  C  C1070  1  0.06660000  0.36300000  0.12280000  1.0
  C  C1071  1  0.05680000  0.36830000  0.14860000  1.0
  C  C1072  1  0.03640000  0.35220000  0.15960000  1.0
  C  C1073  1  0.02595000  0.33070000  0.14460000  1.0
  C  C1074  1  0.03580000  0.32540000  0.11880000  1.0
  C  C1075  1  0.05610000  0.34160000  0.10790000  1.0
  C  C1076  1  0.02130000  0.26680000  0.14270000  1.0
  C  C1077  1  0.02130000  0.24040000  0.13510000  1.0
  C  C1078  1  0.97640000  0.13790000  0.08630000  1.0
  C  C1079  1  0.97680000  0.11340000  0.07260000  1.0
  C  C1080  1  0.02280000  0.30250000  0.20400000  1.0
  C  C1081  1  0.73400000  0.36520000  0.02590000  1.0
  C  C1082  1  0.72930000  0.33770000  0.02500000  1.0
  C  C1083  1  0.70480000  0.23080000  0.02190000  1.0
  C  C1084  1  0.81310000  0.54600000  0.04620000  1.0
  C  C1085  1  0.83460000  0.55950000  0.06220000  1.0
  C  C1086  1  0.82765000  0.57820000  0.08210000  1.0
  C  C1087  1  0.84770000  0.59290000  0.09530000  1.0
  C  C1088  1  0.87480000  0.58890000  0.08850000  1.0
  C  C1089  1  0.88174000  0.57020000  0.06860000  1.0
  C  C1090  1  0.86160000  0.55550000  0.05550000  1.0
  C  C1091  1  0.89570000  0.60520000  0.10160000  1.0
  C  C1092  1  0.91240000  0.61900000  0.11180000  1.0
  C  C1093  1  0.93340000  0.63700000  0.12280000  1.0
  C  C1094  1  0.94320000  0.63170000  0.14860000  1.0
  C  C1095  1  0.96360000  0.64780000  0.15960000  1.0
  C  C1096  1  0.97405000  0.66930000  0.14460000  1.0
  C  C1097  1  0.96420000  0.67460000  0.11880000  1.0
  C  C1098  1  0.94390000  0.65840000  0.10790000  1.0
  C  C1099  1  0.97870000  0.73320000  0.14270000  1.0
  C  C1100  1  0.97870000  0.75960000  0.13510000  1.0
  C  C1101  1  0.02360000  0.86210000  0.08630000  1.0
  C  C1102  1  0.02320000  0.88660000  0.07260000  1.0
  C  C1103  1  0.97720000  0.69750000  0.20400000  1.0
  C  C1104  1  0.97410000  0.73400000  0.63480000  1.0
  C  C1105  1  0.97500000  0.72930000  0.66230000  1.0
  C  C1106  1  0.97810000  0.70480000  0.76920000  1.0
  C  C1107  1  0.95380000  0.81310000  0.45400000  1.0
  C  C1108  1  0.93780000  0.83460000  0.44050000  1.0
  C  C1109  1  0.91790000  0.82765000  0.42180000  1.0
  C  C1110  1  0.90470000  0.84770000  0.40710000  1.0
  C  C1111  1  0.91150000  0.87480000  0.41110000  1.0
  C  C1112  1  0.93140000  0.88174000  0.42980000  1.0
  C  C1113  1  0.94450000  0.86160000  0.44450000  1.0
  C  C1114  1  0.89840000  0.89570000  0.39480000  1.0
  C  C1115  1  0.88820000  0.91240000  0.38100000  1.0
  C  C1116  1  0.87720000  0.93340000  0.36300000  1.0
  C  C1117  1  0.85140000  0.94320000  0.36830000  1.0
  C  C1118  1  0.84040000  0.96360000  0.35220000  1.0
  C  C1119  1  0.85540000  0.97405000  0.33070000  1.0
  C  C1120  1  0.88120000  0.96420000  0.32540000  1.0
  C  C1121  1  0.89210000  0.94390000  0.34160000  1.0
  C  C1122  1  0.85730000  0.97870000  0.26680000  1.0
  C  C1123  1  0.86490000  0.97870000  0.24040000  1.0
  C  C1124  1  0.91370000  0.02360000  0.13790000  1.0
  C  C1125  1  0.92740000  0.02320000  0.11340000  1.0
  C  C1126  1  0.79600000  0.97720000  0.30250000  1.0
  C  C1127  1  0.97410000  0.26600000  0.36520000  1.0
  C  C1128  1  0.97500000  0.27070000  0.33770000  1.0
  C  C1129  1  0.97810000  0.29520000  0.23080000  1.0
  C  C1130  1  0.95380000  0.18690000  0.54600000  1.0
  C  C1131  1  0.93780000  0.16540000  0.55950000  1.0
  C  C1132  1  0.91790000  0.17235000  0.57820000  1.0
  C  C1133  1  0.90470000  0.15230000  0.59290000  1.0
  C  C1134  1  0.91150000  0.12520000  0.58890000  1.0
  C  C1135  1  0.93140000  0.11826000  0.57020000  1.0
  C  C1136  1  0.94450000  0.13840000  0.55550000  1.0
  C  C1137  1  0.89840000  0.10430000  0.60520000  1.0
  C  C1138  1  0.88820000  0.08760000  0.61900000  1.0
  C  C1139  1  0.87720000  0.06660000  0.63700000  1.0
  C  C1140  1  0.85140000  0.05680000  0.63170000  1.0
  C  C1141  1  0.84040000  0.03640000  0.64780000  1.0
  C  C1142  1  0.85540000  0.02595000  0.66930000  1.0
  C  C1143  1  0.88120000  0.03580000  0.67460000  1.0
  C  C1144  1  0.89210000  0.05610000  0.65840000  1.0
  C  C1145  1  0.85730000  0.02130000  0.73320000  1.0
  C  C1146  1  0.86490000  0.02130000  0.75960000  1.0
  C  C1147  1  0.91370000  0.97640000  0.86210000  1.0
  C  C1148  1  0.92740000  0.97680000  0.88660000  1.0
  C  C1149  1  0.79600000  0.02280000  0.69750000  1.0
  C  C1150  1  0.02590000  0.26600000  0.63480000  1.0
  C  C1151  1  0.02500000  0.27070000  0.66230000  1.0
  C  C1152  1  0.02190000  0.29520000  0.76920000  1.0
  C  C1153  1  0.04620000  0.18690000  0.45400000  1.0
  C  C1154  1  0.06220000  0.16540000  0.44050000  1.0
  C  C1155  1  0.08210000  0.17235000  0.42180000  1.0
  C  C1156  1  0.09530000  0.15230000  0.40710000  1.0
  C  C1157  1  0.08850000  0.12520000  0.41110000  1.0
  C  C1158  1  0.06860000  0.11826000  0.42980000  1.0
  C  C1159  1  0.05550000  0.13840000  0.44450000  1.0
  C  C1160  1  0.10160000  0.10430000  0.39480000  1.0
  C  C1161  1  0.11180000  0.08760000  0.38100000  1.0
  C  C1162  1  0.12280000  0.06660000  0.36300000  1.0
  C  C1163  1  0.14860000  0.05680000  0.36830000  1.0
  C  C1164  1  0.15960000  0.03640000  0.35220000  1.0
  C  C1165  1  0.14460000  0.02595000  0.33070000  1.0
  C  C1166  1  0.11880000  0.03580000  0.32540000  1.0
  C  C1167  1  0.10790000  0.05610000  0.34160000  1.0
  C  C1168  1  0.14270000  0.02130000  0.26680000  1.0
  C  C1169  1  0.13510000  0.02130000  0.24040000  1.0
  C  C1170  1  0.08630000  0.97640000  0.13790000  1.0
  C  C1171  1  0.07260000  0.97680000  0.11340000  1.0
  C  C1172  1  0.20400000  0.02280000  0.30250000  1.0
  C  C1173  1  0.02590000  0.73400000  0.36520000  1.0
  C  C1174  1  0.02500000  0.72930000  0.33770000  1.0
  C  C1175  1  0.02190000  0.70480000  0.23080000  1.0
  C  C1176  1  0.04620000  0.81310000  0.54600000  1.0
  C  C1177  1  0.06220000  0.83460000  0.55950000  1.0
  C  C1178  1  0.08210000  0.82765000  0.57820000  1.0
  C  C1179  1  0.09530000  0.84770000  0.59290000  1.0
  C  C1180  1  0.08850000  0.87480000  0.58890000  1.0
  C  C1181  1  0.06860000  0.88174000  0.57020000  1.0
  C  C1182  1  0.05550000  0.86160000  0.55550000  1.0
  C  C1183  1  0.10160000  0.89570000  0.60520000  1.0
  C  C1184  1  0.11180000  0.91240000  0.61900000  1.0
  C  C1185  1  0.12280000  0.93340000  0.63700000  1.0
  C  C1186  1  0.14860000  0.94320000  0.63170000  1.0
  C  C1187  1  0.15960000  0.96360000  0.64780000  1.0
  C  C1188  1  0.14460000  0.97405000  0.66930000  1.0
  C  C1189  1  0.11880000  0.96420000  0.67460000  1.0
  C  C1190  1  0.10790000  0.94390000  0.65840000  1.0
  C  C1191  1  0.14270000  0.97870000  0.73320000  1.0
  C  C1192  1  0.13510000  0.97870000  0.75960000  1.0
  C  C1193  1  0.08630000  0.02360000  0.86210000  1.0
  C  C1194  1  0.07260000  0.02320000  0.88660000  1.0
  C  C1195  1  0.20400000  0.97720000  0.69750000  1.0
  C  C1196  1  0.63480000  0.97410000  0.73400000  1.0
  C  C1197  1  0.66230000  0.97500000  0.72930000  1.0
  C  C1198  1  0.76920000  0.97810000  0.70480000  1.0
  C  C1199  1  0.45400000  0.95380000  0.81310000  1.0
  C  C1200  1  0.44050000  0.93780000  0.83460000  1.0
  C  C1201  1  0.42180000  0.91790000  0.82765000  1.0
  C  C1202  1  0.40710000  0.90470000  0.84770000  1.0
  C  C1203  1  0.41110000  0.91150000  0.87480000  1.0
  C  C1204  1  0.42980000  0.93140000  0.88174000  1.0
  C  C1205  1  0.44450000  0.94450000  0.86160000  1.0
  C  C1206  1  0.39480000  0.89840000  0.89570000  1.0
  C  C1207  1  0.38100000  0.88820000  0.91240000  1.0
  C  C1208  1  0.36300000  0.87720000  0.93340000  1.0
  C  C1209  1  0.36830000  0.85140000  0.94320000  1.0
  C  C1210  1  0.35220000  0.84040000  0.96360000  1.0
  C  C1211  1  0.33070000  0.85540000  0.97405000  1.0
  C  C1212  1  0.32540000  0.88120000  0.96420000  1.0
  C  C1213  1  0.34160000  0.89210000  0.94390000  1.0
  C  C1214  1  0.26680000  0.85730000  0.97870000  1.0
  C  C1215  1  0.24040000  0.86490000  0.97870000  1.0
  C  C1216  1  0.13790000  0.91370000  0.02360000  1.0
  C  C1217  1  0.11340000  0.92740000  0.02320000  1.0
  C  C1218  1  0.30250000  0.79600000  0.97720000  1.0
  C  C1219  1  0.36520000  0.97410000  0.26600000  1.0
  C  C1220  1  0.33770000  0.97500000  0.27070000  1.0
  C  C1221  1  0.23080000  0.97810000  0.29520000  1.0
  C  C1222  1  0.54600000  0.95380000  0.18690000  1.0
  C  C1223  1  0.55950000  0.93780000  0.16540000  1.0
  C  C1224  1  0.57820000  0.91790000  0.17235000  1.0
  C  C1225  1  0.59290000  0.90470000  0.15230000  1.0
  C  C1226  1  0.58890000  0.91150000  0.12520000  1.0
  C  C1227  1  0.57020000  0.93140000  0.11826000  1.0
  C  C1228  1  0.55550000  0.94450000  0.13840000  1.0
  C  C1229  1  0.60520000  0.89840000  0.10430000  1.0
  C  C1230  1  0.61900000  0.88820000  0.08760000  1.0
  C  C1231  1  0.63700000  0.87720000  0.06660000  1.0
  C  C1232  1  0.63170000  0.85140000  0.05680000  1.0
  C  C1233  1  0.64780000  0.84040000  0.03640000  1.0
  C  C1234  1  0.66930000  0.85540000  0.02595000  1.0
  C  C1235  1  0.67460000  0.88120000  0.03580000  1.0
  C  C1236  1  0.65840000  0.89210000  0.05610000  1.0
  C  C1237  1  0.73320000  0.85730000  0.02130000  1.0
  C  C1238  1  0.75960000  0.86490000  0.02130000  1.0
  C  C1239  1  0.86210000  0.91370000  0.97640000  1.0
  C  C1240  1  0.88660000  0.92740000  0.97680000  1.0
  C  C1241  1  0.69750000  0.79600000  0.02280000  1.0
  C  C1242  1  0.63480000  0.02590000  0.26600000  1.0
  C  C1243  1  0.66230000  0.02500000  0.27070000  1.0
  C  C1244  1  0.76920000  0.02190000  0.29520000  1.0
  C  C1245  1  0.45400000  0.04620000  0.18690000  1.0
  C  C1246  1  0.44050000  0.06220000  0.16540000  1.0
  C  C1247  1  0.42180000  0.08210000  0.17235000  1.0
  C  C1248  1  0.40710000  0.09530000  0.15230000  1.0
  C  C1249  1  0.41110000  0.08850000  0.12520000  1.0
  C  C1250  1  0.42980000  0.06860000  0.11826000  1.0
  C  C1251  1  0.44450000  0.05550000  0.13840000  1.0
  C  C1252  1  0.39480000  0.10160000  0.10430000  1.0
  C  C1253  1  0.38100000  0.11180000  0.08760000  1.0
  C  C1254  1  0.36300000  0.12280000  0.06660000  1.0
  C  C1255  1  0.36830000  0.14860000  0.05680000  1.0
  C  C1256  1  0.35220000  0.15960000  0.03640000  1.0
  C  C1257  1  0.33070000  0.14460000  0.02595000  1.0
  C  C1258  1  0.32540000  0.11880000  0.03580000  1.0
  C  C1259  1  0.34160000  0.10790000  0.05610000  1.0
  C  C1260  1  0.26680000  0.14270000  0.02130000  1.0
  C  C1261  1  0.24040000  0.13510000  0.02130000  1.0
  C  C1262  1  0.13790000  0.08630000  0.97640000  1.0
  C  C1263  1  0.11340000  0.07260000  0.97680000  1.0
  C  C1264  1  0.30250000  0.20400000  0.02280000  1.0
  C  C1265  1  0.36520000  0.02590000  0.73400000  1.0
  C  C1266  1  0.33770000  0.02500000  0.72930000  1.0
  C  C1267  1  0.23080000  0.02190000  0.70480000  1.0
  C  C1268  1  0.54600000  0.04620000  0.81310000  1.0
  C  C1269  1  0.55950000  0.06220000  0.83460000  1.0
  C  C1270  1  0.57820000  0.08210000  0.82765000  1.0
  C  C1271  1  0.59290000  0.09530000  0.84770000  1.0
  C  C1272  1  0.58890000  0.08850000  0.87480000  1.0
  C  C1273  1  0.57020000  0.06860000  0.88174000  1.0
  C  C1274  1  0.55550000  0.05550000  0.86160000  1.0
  C  C1275  1  0.60520000  0.10160000  0.89570000  1.0
  C  C1276  1  0.61900000  0.11180000  0.91240000  1.0
  C  C1277  1  0.63700000  0.12280000  0.93340000  1.0
  C  C1278  1  0.63170000  0.14860000  0.94320000  1.0
  C  C1279  1  0.64780000  0.15960000  0.96360000  1.0
  C  C1280  1  0.66930000  0.14460000  0.97405000  1.0
  C  C1281  1  0.67460000  0.11880000  0.96420000  1.0
  C  C1282  1  0.65840000  0.10790000  0.94390000  1.0
  C  C1283  1  0.73320000  0.14270000  0.97870000  1.0
  C  C1284  1  0.75960000  0.13510000  0.97870000  1.0
  C  C1285  1  0.86210000  0.08630000  0.02360000  1.0
  C  C1286  1  0.88660000  0.07260000  0.02320000  1.0
  C  C1287  1  0.69750000  0.20400000  0.97720000  1.0
  C  C1288  1  0.13480000  0.23400000  0.52590000  1.0
  C  C1289  1  0.16230000  0.22930000  0.52500000  1.0
  C  C1290  1  0.26920000  0.20480000  0.52190000  1.0
  C  C1291  1  0.95400000  0.31310000  0.54620000  1.0
  C  C1292  1  0.94050000  0.33460000  0.56220000  1.0
  C  C1293  1  0.92180000  0.32765000  0.58210000  1.0
  C  C1294  1  0.90710000  0.34770000  0.59530000  1.0
  C  C1295  1  0.91110000  0.37480000  0.58850000  1.0
  C  C1296  1  0.92980000  0.38174000  0.56860000  1.0
  C  C1297  1  0.94450000  0.36160000  0.55550000  1.0
  C  C1298  1  0.89480000  0.39570000  0.60160000  1.0
  C  C1299  1  0.88100000  0.41240000  0.61180000  1.0
  C  C1300  1  0.86300000  0.43340000  0.62280000  1.0
  C  C1301  1  0.86830000  0.44320000  0.64860000  1.0
  C  C1302  1  0.85220000  0.46360000  0.65960000  1.0
  C  C1303  1  0.83070000  0.47405000  0.64460000  1.0
  C  C1304  1  0.82540000  0.46420000  0.61880000  1.0
  C  C1305  1  0.84160000  0.44390000  0.60790000  1.0
  C  C1306  1  0.76680000  0.47870000  0.64270000  1.0
  C  C1307  1  0.74040000  0.47870000  0.63510000  1.0
  C  C1308  1  0.63790000  0.52360000  0.58630000  1.0
  C  C1309  1  0.61340000  0.52320000  0.57260000  1.0
  C  C1310  1  0.80250000  0.47720000  0.70400000  1.0
  C  C1311  1  0.86520000  0.76600000  0.52590000  1.0
  C  C1312  1  0.83770000  0.77070000  0.52500000  1.0
  C  C1313  1  0.73080000  0.79520000  0.52190000  1.0
  C  C1314  1  0.04600000  0.68690000  0.54620000  1.0
  C  C1315  1  0.05950000  0.66540000  0.56220000  1.0
  C  C1316  1  0.07820000  0.67235000  0.58210000  1.0
  C  C1317  1  0.09290000  0.65230000  0.59530000  1.0
  C  C1318  1  0.08890000  0.62520000  0.58850000  1.0
  C  C1319  1  0.07020000  0.61826000  0.56860000  1.0
  C  C1320  1  0.05550000  0.63840000  0.55550000  1.0
  C  C1321  1  0.10520000  0.60430000  0.60160000  1.0
  C  C1322  1  0.11900000  0.58760000  0.61180000  1.0
  C  C1323  1  0.13700000  0.56660000  0.62280000  1.0
  C  C1324  1  0.13170000  0.55680000  0.64860000  1.0
  C  C1325  1  0.14780000  0.53640000  0.65960000  1.0
  C  C1326  1  0.16930000  0.52595000  0.64460000  1.0
  C  C1327  1  0.17460000  0.53580000  0.61880000  1.0
  C  C1328  1  0.15840000  0.55610000  0.60790000  1.0
  C  C1329  1  0.23320000  0.52130000  0.64270000  1.0
  C  C1330  1  0.25960000  0.52130000  0.63510000  1.0
  C  C1331  1  0.36210000  0.47640000  0.58630000  1.0
  C  C1332  1  0.38660000  0.47680000  0.57260000  1.0
  C  C1333  1  0.19750000  0.52280000  0.70400000  1.0
  C  C1334  1  0.13480000  0.76600000  0.47410000  1.0
  C  C1335  1  0.16230000  0.77070000  0.47500000  1.0
  C  C1336  1  0.26920000  0.79520000  0.47810000  1.0
  C  C1337  1  0.95400000  0.68690000  0.45380000  1.0
  C  C1338  1  0.94050000  0.66540000  0.43780000  1.0
  C  C1339  1  0.92180000  0.67235000  0.41790000  1.0
  C  C1340  1  0.90710000  0.65230000  0.40470000  1.0
  C  C1341  1  0.91110000  0.62520000  0.41150000  1.0
  C  C1342  1  0.92980000  0.61826000  0.43140000  1.0
  C  C1343  1  0.94450000  0.63840000  0.44450000  1.0
  C  C1344  1  0.89480000  0.60430000  0.39840000  1.0
  C  C1345  1  0.88100000  0.58760000  0.38820000  1.0
  C  C1346  1  0.86300000  0.56660000  0.37720000  1.0
  C  C1347  1  0.86830000  0.55680000  0.35140000  1.0
  C  C1348  1  0.85220000  0.53640000  0.34040000  1.0
  C  C1349  1  0.83070000  0.52595000  0.35540000  1.0
  C  C1350  1  0.82540000  0.53580000  0.38120000  1.0
  C  C1351  1  0.84160000  0.55610000  0.39210000  1.0
  C  C1352  1  0.76680000  0.52130000  0.35730000  1.0
  C  C1353  1  0.74040000  0.52130000  0.36490000  1.0
  C  C1354  1  0.63790000  0.47640000  0.41370000  1.0
  C  C1355  1  0.61340000  0.47680000  0.42740000  1.0
  C  C1356  1  0.80250000  0.52280000  0.29600000  1.0
  C  C1357  1  0.86520000  0.23400000  0.47410000  1.0
  C  C1358  1  0.83770000  0.22930000  0.47500000  1.0
  C  C1359  1  0.73080000  0.20480000  0.47810000  1.0
  C  C1360  1  0.04600000  0.31310000  0.45380000  1.0
  C  C1361  1  0.05950000  0.33460000  0.43780000  1.0
  C  C1362  1  0.07820000  0.32765000  0.41790000  1.0
  C  C1363  1  0.09290000  0.34770000  0.40470000  1.0
  C  C1364  1  0.08890000  0.37480000  0.41150000  1.0
  C  C1365  1  0.07020000  0.38174000  0.43140000  1.0
  C  C1366  1  0.05550000  0.36160000  0.44450000  1.0
  C  C1367  1  0.10520000  0.39570000  0.39840000  1.0
  C  C1368  1  0.11900000  0.41240000  0.38820000  1.0
  C  C1369  1  0.13700000  0.43340000  0.37720000  1.0
  C  C1370  1  0.13170000  0.44320000  0.35140000  1.0
  C  C1371  1  0.14780000  0.46360000  0.34040000  1.0
  C  C1372  1  0.16930000  0.47405000  0.35540000  1.0
  C  C1373  1  0.17460000  0.46420000  0.38120000  1.0
  C  C1374  1  0.15840000  0.44390000  0.39210000  1.0
  C  C1375  1  0.23320000  0.47870000  0.35730000  1.0
  C  C1376  1  0.25960000  0.47870000  0.36490000  1.0
  C  C1377  1  0.36210000  0.52360000  0.41370000  1.0
  C  C1378  1  0.38660000  0.52320000  0.42740000  1.0
  C  C1379  1  0.19750000  0.47720000  0.29600000  1.0
  C  C1380  1  0.23400000  0.47410000  0.86520000  1.0
  C  C1381  1  0.22930000  0.47500000  0.83770000  1.0
  C  C1382  1  0.20480000  0.47810000  0.73080000  1.0
  C  C1383  1  0.31310000  0.45380000  0.04600000  1.0
  C  C1384  1  0.33460000  0.43780000  0.05950000  1.0
  C  C1385  1  0.32765000  0.41790000  0.07820000  1.0
  C  C1386  1  0.34770000  0.40470000  0.09290000  1.0
  C  C1387  1  0.37480000  0.41150000  0.08890000  1.0
  C  C1388  1  0.38174000  0.43140000  0.07020000  1.0
  C  C1389  1  0.36160000  0.44450000  0.05550000  1.0
  C  C1390  1  0.39570000  0.39840000  0.10520000  1.0
  C  C1391  1  0.41240000  0.38820000  0.11900000  1.0
  C  C1392  1  0.43340000  0.37720000  0.13700000  1.0
  C  C1393  1  0.44320000  0.35140000  0.13170000  1.0
  C  C1394  1  0.46360000  0.34040000  0.14780000  1.0
  C  C1395  1  0.47405000  0.35540000  0.16930000  1.0
  C  C1396  1  0.46420000  0.38120000  0.17460000  1.0
  C  C1397  1  0.44390000  0.39210000  0.15840000  1.0
  C  C1398  1  0.47870000  0.35730000  0.23320000  1.0
  C  C1399  1  0.47870000  0.36490000  0.25960000  1.0
  C  C1400  1  0.52360000  0.41370000  0.36210000  1.0
  C  C1401  1  0.52320000  0.42740000  0.38660000  1.0
  C  C1402  1  0.47720000  0.29600000  0.19750000  1.0
  C  C1403  1  0.76600000  0.47410000  0.13480000  1.0
  C  C1404  1  0.77070000  0.47500000  0.16230000  1.0
  C  C1405  1  0.79520000  0.47810000  0.26920000  1.0
  C  C1406  1  0.68690000  0.45380000  0.95400000  1.0
  C  C1407  1  0.66540000  0.43780000  0.94050000  1.0
  C  C1408  1  0.67235000  0.41790000  0.92180000  1.0
  C  C1409  1  0.65230000  0.40470000  0.90710000  1.0
  C  C1410  1  0.62520000  0.41150000  0.91110000  1.0
  C  C1411  1  0.61826000  0.43140000  0.92980000  1.0
  C  C1412  1  0.63840000  0.44450000  0.94450000  1.0
  C  C1413  1  0.60430000  0.39840000  0.89480000  1.0
  C  C1414  1  0.58760000  0.38820000  0.88100000  1.0
  C  C1415  1  0.56660000  0.37720000  0.86300000  1.0
  C  C1416  1  0.55680000  0.35140000  0.86830000  1.0
  C  C1417  1  0.53640000  0.34040000  0.85220000  1.0
  C  C1418  1  0.52595000  0.35540000  0.83070000  1.0
  C  C1419  1  0.53580000  0.38120000  0.82540000  1.0
  C  C1420  1  0.55610000  0.39210000  0.84160000  1.0
  C  C1421  1  0.52130000  0.35730000  0.76680000  1.0
  C  C1422  1  0.52130000  0.36490000  0.74040000  1.0
  C  C1423  1  0.47640000  0.41370000  0.63790000  1.0
  C  C1424  1  0.47680000  0.42740000  0.61340000  1.0
  C  C1425  1  0.52280000  0.29600000  0.80250000  1.0
  C  C1426  1  0.76600000  0.52590000  0.86520000  1.0
  C  C1427  1  0.77070000  0.52500000  0.83770000  1.0
  C  C1428  1  0.79520000  0.52190000  0.73080000  1.0
  C  C1429  1  0.68690000  0.54620000  0.04600000  1.0
  C  C1430  1  0.66540000  0.56220000  0.05950000  1.0
  C  C1431  1  0.67235000  0.58210000  0.07820000  1.0
  C  C1432  1  0.65230000  0.59530000  0.09290000  1.0
  C  C1433  1  0.62520000  0.58850000  0.08890000  1.0
  C  C1434  1  0.61826000  0.56860000  0.07020000  1.0
  C  C1435  1  0.63840000  0.55550000  0.05550000  1.0
  C  C1436  1  0.60430000  0.60160000  0.10520000  1.0
  C  C1437  1  0.58760000  0.61180000  0.11900000  1.0
  C  C1438  1  0.56660000  0.62280000  0.13700000  1.0
  C  C1439  1  0.55680000  0.64860000  0.13170000  1.0
  C  C1440  1  0.53640000  0.65960000  0.14780000  1.0
  C  C1441  1  0.52595000  0.64460000  0.16930000  1.0
  C  C1442  1  0.53580000  0.61880000  0.17460000  1.0
  C  C1443  1  0.55610000  0.60790000  0.15840000  1.0
  C  C1444  1  0.52130000  0.64270000  0.23320000  1.0
  C  C1445  1  0.52130000  0.63510000  0.25960000  1.0
  C  C1446  1  0.47640000  0.58630000  0.36210000  1.0
  C  C1447  1  0.47680000  0.57260000  0.38660000  1.0
  C  C1448  1  0.52280000  0.70400000  0.19750000  1.0
  C  C1449  1  0.23400000  0.52590000  0.13480000  1.0
  C  C1450  1  0.22930000  0.52500000  0.16230000  1.0
  C  C1451  1  0.20480000  0.52190000  0.26920000  1.0
  C  C1452  1  0.31310000  0.54620000  0.95400000  1.0
  C  C1453  1  0.33460000  0.56220000  0.94050000  1.0
  C  C1454  1  0.32765000  0.58210000  0.92180000  1.0
  C  C1455  1  0.34770000  0.59530000  0.90710000  1.0
  C  C1456  1  0.37480000  0.58850000  0.91110000  1.0
  C  C1457  1  0.38174000  0.56860000  0.92980000  1.0
  C  C1458  1  0.36160000  0.55550000  0.94450000  1.0
  C  C1459  1  0.39570000  0.60160000  0.89480000  1.0
  C  C1460  1  0.41240000  0.61180000  0.88100000  1.0
  C  C1461  1  0.43340000  0.62280000  0.86300000  1.0
  C  C1462  1  0.44320000  0.64860000  0.86830000  1.0
  C  C1463  1  0.46360000  0.65960000  0.85220000  1.0
  C  C1464  1  0.47405000  0.64460000  0.83070000  1.0
  C  C1465  1  0.46420000  0.61880000  0.82540000  1.0
  C  C1466  1  0.44390000  0.60790000  0.84160000  1.0
  C  C1467  1  0.47870000  0.64270000  0.76680000  1.0
  C  C1468  1  0.47870000  0.63510000  0.74040000  1.0
  C  C1469  1  0.52360000  0.58630000  0.63790000  1.0
  C  C1470  1  0.52320000  0.57260000  0.61340000  1.0
  C  C1471  1  0.47720000  0.70400000  0.80250000  1.0
  C  C1472  1  0.47410000  0.13480000  0.76600000  1.0
  C  C1473  1  0.47500000  0.16230000  0.77070000  1.0
  C  C1474  1  0.47810000  0.26920000  0.79520000  1.0
  C  C1475  1  0.45380000  0.95400000  0.68690000  1.0
  C  C1476  1  0.43780000  0.94050000  0.66540000  1.0
  C  C1477  1  0.41790000  0.92180000  0.67235000  1.0
  C  C1478  1  0.40470000  0.90710000  0.65230000  1.0
  C  C1479  1  0.41150000  0.91110000  0.62520000  1.0
  C  C1480  1  0.43140000  0.92980000  0.61826000  1.0
  C  C1481  1  0.44450000  0.94450000  0.63840000  1.0
  C  C1482  1  0.39840000  0.89480000  0.60430000  1.0
  C  C1483  1  0.38820000  0.88100000  0.58760000  1.0
  C  C1484  1  0.37720000  0.86300000  0.56660000  1.0
  C  C1485  1  0.35140000  0.86830000  0.55680000  1.0
  C  C1486  1  0.34040000  0.85220000  0.53640000  1.0
  C  C1487  1  0.35540000  0.83070000  0.52595000  1.0
  C  C1488  1  0.38120000  0.82540000  0.53580000  1.0
  C  C1489  1  0.39210000  0.84160000  0.55610000  1.0
  C  C1490  1  0.35730000  0.76680000  0.52130000  1.0
  C  C1491  1  0.36490000  0.74040000  0.52130000  1.0
  C  C1492  1  0.41370000  0.63790000  0.47640000  1.0
  C  C1493  1  0.42740000  0.61340000  0.47680000  1.0
  C  C1494  1  0.29600000  0.80250000  0.52280000  1.0
  C  C1495  1  0.47410000  0.86520000  0.23400000  1.0
  C  C1496  1  0.47500000  0.83770000  0.22930000  1.0
  C  C1497  1  0.47810000  0.73080000  0.20480000  1.0
  C  C1498  1  0.45380000  0.04600000  0.31310000  1.0
  C  C1499  1  0.43780000  0.05950000  0.33460000  1.0
  C  C1500  1  0.41790000  0.07820000  0.32765000  1.0
  C  C1501  1  0.40470000  0.09290000  0.34770000  1.0
  C  C1502  1  0.41150000  0.08890000  0.37480000  1.0
  C  C1503  1  0.43140000  0.07020000  0.38174000  1.0
  C  C1504  1  0.44450000  0.05550000  0.36160000  1.0
  C  C1505  1  0.39840000  0.10520000  0.39570000  1.0
  C  C1506  1  0.38820000  0.11900000  0.41240000  1.0
  C  C1507  1  0.37720000  0.13700000  0.43340000  1.0
  C  C1508  1  0.35140000  0.13170000  0.44320000  1.0
  C  C1509  1  0.34040000  0.14780000  0.46360000  1.0
  C  C1510  1  0.35540000  0.16930000  0.47405000  1.0
  C  C1511  1  0.38120000  0.17460000  0.46420000  1.0
  C  C1512  1  0.39210000  0.15840000  0.44390000  1.0
  C  C1513  1  0.35730000  0.23320000  0.47870000  1.0
  C  C1514  1  0.36490000  0.25960000  0.47870000  1.0
  C  C1515  1  0.41370000  0.36210000  0.52360000  1.0
  C  C1516  1  0.42740000  0.38660000  0.52320000  1.0
  C  C1517  1  0.29600000  0.19750000  0.47720000  1.0
  C  C1518  1  0.52590000  0.13480000  0.23400000  1.0
  C  C1519  1  0.52500000  0.16230000  0.22930000  1.0
  C  C1520  1  0.52190000  0.26920000  0.20480000  1.0
  C  C1521  1  0.54620000  0.95400000  0.31310000  1.0
  C  C1522  1  0.56220000  0.94050000  0.33460000  1.0
  C  C1523  1  0.58210000  0.92180000  0.32765000  1.0
  C  C1524  1  0.59530000  0.90710000  0.34770000  1.0
  C  C1525  1  0.58850000  0.91110000  0.37480000  1.0
  C  C1526  1  0.56860000  0.92980000  0.38174000  1.0
  C  C1527  1  0.55550000  0.94450000  0.36160000  1.0
  C  C1528  1  0.60160000  0.89480000  0.39570000  1.0
  C  C1529  1  0.61180000  0.88100000  0.41240000  1.0
  C  C1530  1  0.62280000  0.86300000  0.43340000  1.0
  C  C1531  1  0.64860000  0.86830000  0.44320000  1.0
  C  C1532  1  0.65960000  0.85220000  0.46360000  1.0
  C  C1533  1  0.64460000  0.83070000  0.47405000  1.0
  C  C1534  1  0.61880000  0.82540000  0.46420000  1.0
  C  C1535  1  0.60790000  0.84160000  0.44390000  1.0
  C  C1536  1  0.64270000  0.76680000  0.47870000  1.0
  C  C1537  1  0.63510000  0.74040000  0.47870000  1.0
  C  C1538  1  0.58630000  0.63790000  0.52360000  1.0
  C  C1539  1  0.57260000  0.61340000  0.52320000  1.0
  C  C1540  1  0.70400000  0.80250000  0.47720000  1.0
  C  C1541  1  0.52590000  0.86520000  0.76600000  1.0
  C  C1542  1  0.52500000  0.83770000  0.77070000  1.0
  C  C1543  1  0.52190000  0.73080000  0.79520000  1.0
  C  C1544  1  0.54620000  0.04600000  0.68690000  1.0
  C  C1545  1  0.56220000  0.05950000  0.66540000  1.0
  C  C1546  1  0.58210000  0.07820000  0.67235000  1.0
  C  C1547  1  0.59530000  0.09290000  0.65230000  1.0
  C  C1548  1  0.58850000  0.08890000  0.62520000  1.0
  C  C1549  1  0.56860000  0.07020000  0.61826000  1.0
  C  C1550  1  0.55550000  0.05550000  0.63840000  1.0
  C  C1551  1  0.60160000  0.10520000  0.60430000  1.0
  C  C1552  1  0.61180000  0.11900000  0.58760000  1.0
  C  C1553  1  0.62280000  0.13700000  0.56660000  1.0
  C  C1554  1  0.64860000  0.13170000  0.55680000  1.0
  C  C1555  1  0.65960000  0.14780000  0.53640000  1.0
  C  C1556  1  0.64460000  0.16930000  0.52595000  1.0
  C  C1557  1  0.61880000  0.17460000  0.53580000  1.0
  C  C1558  1  0.60790000  0.15840000  0.55610000  1.0
  C  C1559  1  0.64270000  0.23320000  0.52130000  1.0
  C  C1560  1  0.63510000  0.25960000  0.52130000  1.0
  C  C1561  1  0.58630000  0.36210000  0.47640000  1.0
  C  C1562  1  0.57260000  0.38660000  0.47680000  1.0
  C  C1563  1  0.70400000  0.19750000  0.52280000  1.0
  C  C1564  1  0.25290000  0.40930000  0.00000000  1.0
  C  C1565  1  0.26170000  0.37890000  0.00000000  1.0
  C  C1566  1  0.27320000  0.32490000  0.00000000  1.0
  C  C1567  1  0.27830000  0.29630000  0.00000000  1.0
  C  C1568  1  0.28560000  0.27320000  0.00000000  1.0
  C  C1569  1  0.29370000  0.24810000  0.00000000  1.0
  C  C1570  1  0.74710000  0.59070000  0.00000000  1.0
  C  C1571  1  0.73830000  0.62110000  0.00000000  1.0
  C  C1572  1  0.72680000  0.67510000  0.00000000  1.0
  C  C1573  1  0.72170000  0.70370000  0.00000000  1.0
  C  C1574  1  0.71440000  0.72680000  0.00000000  1.0
  C  C1575  1  0.70630000  0.75190000  0.00000000  1.0
  C  C1576  1  0.74710000  0.40930000  0.00000000  1.0
  C  C1577  1  0.73830000  0.37890000  0.00000000  1.0
  C  C1578  1  0.72680000  0.32490000  0.00000000  1.0
  C  C1579  1  0.72170000  0.29630000  0.00000000  1.0
  C  C1580  1  0.71440000  0.27320000  0.00000000  1.0
  C  C1581  1  0.70630000  0.24810000  0.00000000  1.0
  C  C1582  1  0.25290000  0.59070000  0.00000000  1.0
  C  C1583  1  0.26170000  0.62110000  0.00000000  1.0
  C  C1584  1  0.27320000  0.67510000  0.00000000  1.0
  C  C1585  1  0.27830000  0.70370000  0.00000000  1.0
  C  C1586  1  0.28560000  0.72680000  0.00000000  1.0
  C  C1587  1  0.29370000  0.75190000  0.00000000  1.0
  C  C1588  1  0.00000000  0.25290000  0.40930000  1.0
  C  C1589  1  0.00000000  0.26170000  0.37890000  1.0
  C  C1590  1  0.00000000  0.27320000  0.32490000  1.0
  C  C1591  1  0.00000000  0.27830000  0.29630000  1.0
  C  C1592  1  0.00000000  0.28560000  0.27320000  1.0
  C  C1593  1  0.00000000  0.29370000  0.24810000  1.0
  C  C1594  1  0.00000000  0.74710000  0.59070000  1.0
  C  C1595  1  0.00000000  0.73830000  0.62110000  1.0
  C  C1596  1  0.00000000  0.72680000  0.67510000  1.0
  C  C1597  1  0.00000000  0.72170000  0.70370000  1.0
  C  C1598  1  0.00000000  0.71440000  0.72680000  1.0
  C  C1599  1  0.00000000  0.70630000  0.75190000  1.0
  C  C1600  1  0.00000000  0.74710000  0.40930000  1.0
  C  C1601  1  0.00000000  0.73830000  0.37890000  1.0
  C  C1602  1  0.00000000  0.72680000  0.32490000  1.0
  C  C1603  1  0.00000000  0.72170000  0.29630000  1.0
  C  C1604  1  0.00000000  0.71440000  0.27320000  1.0
  C  C1605  1  0.00000000  0.70630000  0.24810000  1.0
  C  C1606  1  0.00000000  0.25290000  0.59070000  1.0
  C  C1607  1  0.00000000  0.26170000  0.62110000  1.0
  C  C1608  1  0.00000000  0.27320000  0.67510000  1.0
  C  C1609  1  0.00000000  0.27830000  0.70370000  1.0
  C  C1610  1  0.00000000  0.28560000  0.72680000  1.0
  C  C1611  1  0.00000000  0.29370000  0.75190000  1.0
  C  C1612  1  0.40930000  0.00000000  0.25290000  1.0
  C  C1613  1  0.37890000  0.00000000  0.26170000  1.0
  C  C1614  1  0.32490000  0.00000000  0.27320000  1.0
  C  C1615  1  0.29630000  0.00000000  0.27830000  1.0
  C  C1616  1  0.27320000  0.00000000  0.28560000  1.0
  C  C1617  1  0.24810000  0.00000000  0.29370000  1.0
  C  C1618  1  0.59070000  0.00000000  0.74710000  1.0
  C  C1619  1  0.62110000  0.00000000  0.73830000  1.0
  C  C1620  1  0.67510000  0.00000000  0.72680000  1.0
  C  C1621  1  0.70370000  0.00000000  0.72170000  1.0
  C  C1622  1  0.72680000  0.00000000  0.71440000  1.0
  C  C1623  1  0.75190000  0.00000000  0.70630000  1.0
  C  C1624  1  0.40930000  0.00000000  0.74710000  1.0
  C  C1625  1  0.37890000  0.00000000  0.73830000  1.0
  C  C1626  1  0.32490000  0.00000000  0.72680000  1.0
  C  C1627  1  0.29630000  0.00000000  0.72170000  1.0
  C  C1628  1  0.27320000  0.00000000  0.71440000  1.0
  C  C1629  1  0.24810000  0.00000000  0.70630000  1.0
  C  C1630  1  0.59070000  0.00000000  0.25290000  1.0
  C  C1631  1  0.62110000  0.00000000  0.26170000  1.0
  C  C1632  1  0.67510000  0.00000000  0.27320000  1.0
  C  C1633  1  0.70370000  0.00000000  0.27830000  1.0
  C  C1634  1  0.72680000  0.00000000  0.28560000  1.0
  C  C1635  1  0.75190000  0.00000000  0.29370000  1.0
  C  C1636  1  0.90930000  0.75290000  0.50000000  1.0
  C  C1637  1  0.87890000  0.76170000  0.50000000  1.0
  C  C1638  1  0.82490000  0.77320000  0.50000000  1.0
  C  C1639  1  0.79630000  0.77830000  0.50000000  1.0
  C  C1640  1  0.77320000  0.78560000  0.50000000  1.0
  C  C1641  1  0.74810000  0.79370000  0.50000000  1.0
  C  C1642  1  0.09070000  0.24710000  0.50000000  1.0
  C  C1643  1  0.12110000  0.23830000  0.50000000  1.0
  C  C1644  1  0.17510000  0.22680000  0.50000000  1.0
  C  C1645  1  0.20370000  0.22170000  0.50000000  1.0
  C  C1646  1  0.22680000  0.21440000  0.50000000  1.0
  C  C1647  1  0.25190000  0.20630000  0.50000000  1.0
  C  C1648  1  0.90930000  0.24710000  0.50000000  1.0
  C  C1649  1  0.87890000  0.23830000  0.50000000  1.0
  C  C1650  1  0.82490000  0.22680000  0.50000000  1.0
  C  C1651  1  0.79630000  0.22170000  0.50000000  1.0
  C  C1652  1  0.77320000  0.21440000  0.50000000  1.0
  C  C1653  1  0.74810000  0.20630000  0.50000000  1.0
  C  C1654  1  0.09070000  0.75290000  0.50000000  1.0
  C  C1655  1  0.12110000  0.76170000  0.50000000  1.0
  C  C1656  1  0.17510000  0.77320000  0.50000000  1.0
  C  C1657  1  0.20370000  0.77830000  0.50000000  1.0
  C  C1658  1  0.22680000  0.78560000  0.50000000  1.0
  C  C1659  1  0.25190000  0.79370000  0.50000000  1.0
  C  C1660  1  0.75290000  0.50000000  0.09070000  1.0
  C  C1661  1  0.76170000  0.50000000  0.12110000  1.0
  C  C1662  1  0.77320000  0.50000000  0.17510000  1.0
  C  C1663  1  0.77830000  0.50000000  0.20370000  1.0
  C  C1664  1  0.78560000  0.50000000  0.22680000  1.0
  C  C1665  1  0.79370000  0.50000000  0.25190000  1.0
  C  C1666  1  0.24710000  0.50000000  0.90930000  1.0
  C  C1667  1  0.23830000  0.50000000  0.87890000  1.0
  C  C1668  1  0.22680000  0.50000000  0.82490000  1.0
  C  C1669  1  0.22170000  0.50000000  0.79630000  1.0
  C  C1670  1  0.21440000  0.50000000  0.77320000  1.0
  C  C1671  1  0.20630000  0.50000000  0.74810000  1.0
  C  C1672  1  0.24710000  0.50000000  0.09070000  1.0
  C  C1673  1  0.23830000  0.50000000  0.12110000  1.0
  C  C1674  1  0.22680000  0.50000000  0.17510000  1.0
  C  C1675  1  0.22170000  0.50000000  0.20370000  1.0
  C  C1676  1  0.21440000  0.50000000  0.22680000  1.0
  C  C1677  1  0.20630000  0.50000000  0.25190000  1.0
  C  C1678  1  0.75290000  0.50000000  0.90930000  1.0
  C  C1679  1  0.76170000  0.50000000  0.87890000  1.0
  C  C1680  1  0.77320000  0.50000000  0.82490000  1.0
  C  C1681  1  0.77830000  0.50000000  0.79630000  1.0
  C  C1682  1  0.78560000  0.50000000  0.77320000  1.0
  C  C1683  1  0.79370000  0.50000000  0.74810000  1.0
  C  C1684  1  0.50000000  0.90930000  0.24710000  1.0
  C  C1685  1  0.50000000  0.87890000  0.23830000  1.0
  C  C1686  1  0.50000000  0.82490000  0.22680000  1.0
  C  C1687  1  0.50000000  0.79630000  0.22170000  1.0
  C  C1688  1  0.50000000  0.77320000  0.21440000  1.0
  C  C1689  1  0.50000000  0.74810000  0.20630000  1.0
  C  C1690  1  0.50000000  0.09070000  0.75290000  1.0
  C  C1691  1  0.50000000  0.12110000  0.76170000  1.0
  C  C1692  1  0.50000000  0.17510000  0.77320000  1.0
  C  C1693  1  0.50000000  0.20370000  0.77830000  1.0
  C  C1694  1  0.50000000  0.22680000  0.78560000  1.0
  C  C1695  1  0.50000000  0.25190000  0.79370000  1.0
  C  C1696  1  0.50000000  0.90930000  0.75290000  1.0
  C  C1697  1  0.50000000  0.87890000  0.76170000  1.0
  C  C1698  1  0.50000000  0.82490000  0.77320000  1.0
  C  C1699  1  0.50000000  0.79630000  0.77830000  1.0
  C  C1700  1  0.50000000  0.77320000  0.78560000  1.0
  C  C1701  1  0.50000000  0.74810000  0.79370000  1.0
  C  C1702  1  0.50000000  0.09070000  0.24710000  1.0
  C  C1703  1  0.50000000  0.12110000  0.23830000  1.0
  C  C1704  1  0.50000000  0.17510000  0.22680000  1.0
  C  C1705  1  0.50000000  0.20370000  0.22170000  1.0
  C  C1706  1  0.50000000  0.22680000  0.21440000  1.0
  C  C1707  1  0.50000000  0.25190000  0.20630000  1.0
  C  C1708  1  0.00000000  0.71620000  0.14760000  1.0
  C  C1709  1  0.00000000  0.77570000  0.12910000  1.0
  C  C1710  1  0.00000000  0.80190000  0.11510000  1.0
  C  C1711  1  0.00000000  0.82090000  0.10000000  1.0
  C  C1712  1  0.00000000  0.84710000  0.08570000  1.0
  C  C1713  1  0.00000000  0.89950000  0.06430000  1.0
  C  C1714  1  0.00000000  0.92740000  0.05320000  1.0
  C  C1715  1  0.00000000  0.69320000  0.18860000  1.0
  C  C1716  1  0.00000000  0.28380000  0.14760000  1.0
  C  C1717  1  0.00000000  0.22430000  0.12910000  1.0
  C  C1718  1  0.00000000  0.19810000  0.11510000  1.0
  C  C1719  1  0.00000000  0.17910000  0.10000000  1.0
  C  C1720  1  0.00000000  0.15290000  0.08570000  1.0
  C  C1721  1  0.00000000  0.10050000  0.06430000  1.0
  C  C1722  1  0.00000000  0.07260000  0.05320000  1.0
  C  C1723  1  0.00000000  0.30680000  0.18860000  1.0
  C  C1724  1  0.00000000  0.71620000  0.85240000  1.0
  C  C1725  1  0.00000000  0.77570000  0.87090000  1.0
  C  C1726  1  0.00000000  0.80190000  0.88490000  1.0
  C  C1727  1  0.00000000  0.82090000  0.90000000  1.0
  C  C1728  1  0.00000000  0.84710000  0.91430000  1.0
  C  C1729  1  0.00000000  0.89950000  0.93570000  1.0
  C  C1730  1  0.00000000  0.92740000  0.94680000  1.0
  C  C1731  1  0.00000000  0.69320000  0.81140000  1.0
  C  C1732  1  0.00000000  0.28380000  0.85240000  1.0
  C  C1733  1  0.00000000  0.22430000  0.87090000  1.0
  C  C1734  1  0.00000000  0.19810000  0.88490000  1.0
  C  C1735  1  0.00000000  0.17910000  0.90000000  1.0
  C  C1736  1  0.00000000  0.15290000  0.91430000  1.0
  C  C1737  1  0.00000000  0.10050000  0.93570000  1.0
  C  C1738  1  0.00000000  0.07260000  0.94680000  1.0
  C  C1739  1  0.00000000  0.30680000  0.81140000  1.0
  C  C1740  1  0.14760000  0.00000000  0.71620000  1.0
  C  C1741  1  0.12910000  0.00000000  0.77570000  1.0
  C  C1742  1  0.11510000  0.00000000  0.80190000  1.0
  C  C1743  1  0.10000000  0.00000000  0.82090000  1.0
  C  C1744  1  0.08570000  0.00000000  0.84710000  1.0
  C  C1745  1  0.06430000  0.00000000  0.89950000  1.0
  C  C1746  1  0.05320000  0.00000000  0.92740000  1.0
  C  C1747  1  0.18860000  0.00000000  0.69320000  1.0
  C  C1748  1  0.14760000  0.00000000  0.28380000  1.0
  C  C1749  1  0.12910000  0.00000000  0.22430000  1.0
  C  C1750  1  0.11510000  0.00000000  0.19810000  1.0
  C  C1751  1  0.10000000  0.00000000  0.17910000  1.0
  C  C1752  1  0.08570000  0.00000000  0.15290000  1.0
  C  C1753  1  0.06430000  0.00000000  0.10050000  1.0
  C  C1754  1  0.05320000  0.00000000  0.07260000  1.0
  C  C1755  1  0.18860000  0.00000000  0.30680000  1.0
  C  C1756  1  0.85240000  0.00000000  0.71620000  1.0
  C  C1757  1  0.87090000  0.00000000  0.77570000  1.0
  C  C1758  1  0.88490000  0.00000000  0.80190000  1.0
  C  C1759  1  0.90000000  0.00000000  0.82090000  1.0
  C  C1760  1  0.91430000  0.00000000  0.84710000  1.0
  C  C1761  1  0.93570000  0.00000000  0.89950000  1.0
  C  C1762  1  0.94680000  0.00000000  0.92740000  1.0
  C  C1763  1  0.81140000  0.00000000  0.69320000  1.0
  C  C1764  1  0.85240000  0.00000000  0.28380000  1.0
  C  C1765  1  0.87090000  0.00000000  0.22430000  1.0
  C  C1766  1  0.88490000  0.00000000  0.19810000  1.0
  C  C1767  1  0.90000000  0.00000000  0.17910000  1.0
  C  C1768  1  0.91430000  0.00000000  0.15290000  1.0
  C  C1769  1  0.93570000  0.00000000  0.10050000  1.0
  C  C1770  1  0.94680000  0.00000000  0.07260000  1.0
  C  C1771  1  0.81140000  0.00000000  0.30680000  1.0
  C  C1772  1  0.71620000  0.14760000  0.00000000  1.0
  C  C1773  1  0.77570000  0.12910000  0.00000000  1.0
  C  C1774  1  0.80190000  0.11510000  0.00000000  1.0
  C  C1775  1  0.82090000  0.10000000  0.00000000  1.0
  C  C1776  1  0.84710000  0.08570000  0.00000000  1.0
  C  C1777  1  0.89950000  0.06430000  0.00000000  1.0
  C  C1778  1  0.92740000  0.05320000  0.00000000  1.0
  C  C1779  1  0.69320000  0.18860000  0.00000000  1.0
  C  C1780  1  0.28380000  0.14760000  0.00000000  1.0
  C  C1781  1  0.22430000  0.12910000  0.00000000  1.0
  C  C1782  1  0.19810000  0.11510000  0.00000000  1.0
  C  C1783  1  0.17910000  0.10000000  0.00000000  1.0
  C  C1784  1  0.15290000  0.08570000  0.00000000  1.0
  C  C1785  1  0.10050000  0.06430000  0.00000000  1.0
  C  C1786  1  0.07260000  0.05320000  0.00000000  1.0
  C  C1787  1  0.30680000  0.18860000  0.00000000  1.0
  C  C1788  1  0.71620000  0.85240000  0.00000000  1.0
  C  C1789  1  0.77570000  0.87090000  0.00000000  1.0
  C  C1790  1  0.80190000  0.88490000  0.00000000  1.0
  C  C1791  1  0.82090000  0.90000000  0.00000000  1.0
  C  C1792  1  0.84710000  0.91430000  0.00000000  1.0
  C  C1793  1  0.89950000  0.93570000  0.00000000  1.0
  C  C1794  1  0.92740000  0.94680000  0.00000000  1.0
  C  C1795  1  0.69320000  0.81140000  0.00000000  1.0
  C  C1796  1  0.28380000  0.85240000  0.00000000  1.0
  C  C1797  1  0.22430000  0.87090000  0.00000000  1.0
  C  C1798  1  0.19810000  0.88490000  0.00000000  1.0
  C  C1799  1  0.17910000  0.90000000  0.00000000  1.0
  C  C1800  1  0.15290000  0.91430000  0.00000000  1.0
  C  C1801  1  0.10050000  0.93570000  0.00000000  1.0
  C  C1802  1  0.07260000  0.94680000  0.00000000  1.0
  C  C1803  1  0.30680000  0.81140000  0.00000000  1.0
  C  C1804  1  0.21620000  0.50000000  0.35240000  1.0
  C  C1805  1  0.27570000  0.50000000  0.37090000  1.0
  C  C1806  1  0.30190000  0.50000000  0.38490000  1.0
  C  C1807  1  0.32090000  0.50000000  0.40000000  1.0
  C  C1808  1  0.34710000  0.50000000  0.41430000  1.0
  C  C1809  1  0.39950000  0.50000000  0.43570000  1.0
  C  C1810  1  0.42740000  0.50000000  0.44680000  1.0
  C  C1811  1  0.19320000  0.50000000  0.31140000  1.0
  C  C1812  1  0.78380000  0.50000000  0.35240000  1.0
  C  C1813  1  0.72430000  0.50000000  0.37090000  1.0
  C  C1814  1  0.69810000  0.50000000  0.38490000  1.0
  C  C1815  1  0.67910000  0.50000000  0.40000000  1.0
  C  C1816  1  0.65290000  0.50000000  0.41430000  1.0
  C  C1817  1  0.60050000  0.50000000  0.43570000  1.0
  C  C1818  1  0.57260000  0.50000000  0.44680000  1.0
  C  C1819  1  0.80680000  0.50000000  0.31140000  1.0
  C  C1820  1  0.21620000  0.50000000  0.64760000  1.0
  C  C1821  1  0.27570000  0.50000000  0.62910000  1.0
  C  C1822  1  0.30190000  0.50000000  0.61510000  1.0
  C  C1823  1  0.32090000  0.50000000  0.60000000  1.0
  C  C1824  1  0.34710000  0.50000000  0.58570000  1.0
  C  C1825  1  0.39950000  0.50000000  0.56430000  1.0
  C  C1826  1  0.42740000  0.50000000  0.55320000  1.0
  C  C1827  1  0.19320000  0.50000000  0.68860000  1.0
  C  C1828  1  0.78380000  0.50000000  0.64760000  1.0
  C  C1829  1  0.72430000  0.50000000  0.62910000  1.0
  C  C1830  1  0.69810000  0.50000000  0.61510000  1.0
  C  C1831  1  0.67910000  0.50000000  0.60000000  1.0
  C  C1832  1  0.65290000  0.50000000  0.58570000  1.0
  C  C1833  1  0.60050000  0.50000000  0.56430000  1.0
  C  C1834  1  0.57260000  0.50000000  0.55320000  1.0
  C  C1835  1  0.80680000  0.50000000  0.68860000  1.0
  C  C1836  1  0.50000000  0.64760000  0.78380000  1.0
  C  C1837  1  0.50000000  0.62910000  0.72430000  1.0
  C  C1838  1  0.50000000  0.61510000  0.69810000  1.0
  C  C1839  1  0.50000000  0.60000000  0.67910000  1.0
  C  C1840  1  0.50000000  0.58570000  0.65290000  1.0
  C  C1841  1  0.50000000  0.56430000  0.60050000  1.0
  C  C1842  1  0.50000000  0.55320000  0.57260000  1.0
  C  C1843  1  0.50000000  0.68860000  0.80680000  1.0
  C  C1844  1  0.50000000  0.64760000  0.21620000  1.0
  C  C1845  1  0.50000000  0.62910000  0.27570000  1.0
  C  C1846  1  0.50000000  0.61510000  0.30190000  1.0
  C  C1847  1  0.50000000  0.60000000  0.32090000  1.0
  C  C1848  1  0.50000000  0.58570000  0.34710000  1.0
  C  C1849  1  0.50000000  0.56430000  0.39950000  1.0
  C  C1850  1  0.50000000  0.55320000  0.42740000  1.0
  C  C1851  1  0.50000000  0.68860000  0.19320000  1.0
  C  C1852  1  0.50000000  0.35240000  0.78380000  1.0
  C  C1853  1  0.50000000  0.37090000  0.72430000  1.0
  C  C1854  1  0.50000000  0.38490000  0.69810000  1.0
  C  C1855  1  0.50000000  0.40000000  0.67910000  1.0
  C  C1856  1  0.50000000  0.41430000  0.65290000  1.0
  C  C1857  1  0.50000000  0.43570000  0.60050000  1.0
  C  C1858  1  0.50000000  0.44680000  0.57260000  1.0
  C  C1859  1  0.50000000  0.31140000  0.80680000  1.0
  C  C1860  1  0.50000000  0.35240000  0.21620000  1.0
  C  C1861  1  0.50000000  0.37090000  0.27570000  1.0
  C  C1862  1  0.50000000  0.38490000  0.30190000  1.0
  C  C1863  1  0.50000000  0.40000000  0.32090000  1.0
  C  C1864  1  0.50000000  0.41430000  0.34710000  1.0
  C  C1865  1  0.50000000  0.43570000  0.39950000  1.0
  C  C1866  1  0.50000000  0.44680000  0.42740000  1.0
  C  C1867  1  0.50000000  0.31140000  0.19320000  1.0
  C  C1868  1  0.64760000  0.21620000  0.50000000  1.0
  C  C1869  1  0.62910000  0.27570000  0.50000000  1.0
  C  C1870  1  0.61510000  0.30190000  0.50000000  1.0
  C  C1871  1  0.60000000  0.32090000  0.50000000  1.0
  C  C1872  1  0.58570000  0.34710000  0.50000000  1.0
  C  C1873  1  0.56430000  0.39950000  0.50000000  1.0
  C  C1874  1  0.55320000  0.42740000  0.50000000  1.0
  C  C1875  1  0.68860000  0.19320000  0.50000000  1.0
  C  C1876  1  0.64760000  0.78380000  0.50000000  1.0
  C  C1877  1  0.62910000  0.72430000  0.50000000  1.0
  C  C1878  1  0.61510000  0.69810000  0.50000000  1.0
  C  C1879  1  0.60000000  0.67910000  0.50000000  1.0
  C  C1880  1  0.58570000  0.65290000  0.50000000  1.0
  C  C1881  1  0.56430000  0.60050000  0.50000000  1.0
  C  C1882  1  0.55320000  0.57260000  0.50000000  1.0
  C  C1883  1  0.68860000  0.80680000  0.50000000  1.0
  C  C1884  1  0.35240000  0.21620000  0.50000000  1.0
  C  C1885  1  0.37090000  0.27570000  0.50000000  1.0
  C  C1886  1  0.38490000  0.30190000  0.50000000  1.0
  C  C1887  1  0.40000000  0.32090000  0.50000000  1.0
  C  C1888  1  0.41430000  0.34710000  0.50000000  1.0
  C  C1889  1  0.43570000  0.39950000  0.50000000  1.0
  C  C1890  1  0.44680000  0.42740000  0.50000000  1.0
  C  C1891  1  0.31140000  0.19320000  0.50000000  1.0
  C  C1892  1  0.35240000  0.78380000  0.50000000  1.0
  C  C1893  1  0.37090000  0.72430000  0.50000000  1.0
  C  C1894  1  0.38490000  0.69810000  0.50000000  1.0
  C  C1895  1  0.40000000  0.67910000  0.50000000  1.0
  C  C1896  1  0.41430000  0.65290000  0.50000000  1.0
  C  C1897  1  0.43570000  0.60050000  0.50000000  1.0
  C  C1898  1  0.44680000  0.57260000  0.50000000  1.0
  C  C1899  1  0.31140000  0.80680000  0.50000000  1.0
  O  O1900  1  0.25187000  0.42023000  0.97577000  1.0
  O  O1901  1  0.21111000  0.44804000  0.94731000  1.0
  O  O1902  1  0.17675000  0.52756000  0.02887000  1.0
  O  O1903  1  0.98020000  0.92970000  0.04000000  1.0
  O  O1904  1  0.74813000  0.57977000  0.97577000  1.0
  O  O1905  1  0.78889000  0.55196000  0.94731000  1.0
  O  O1906  1  0.82325000  0.47244000  0.02887000  1.0
  O  O1907  1  0.01980000  0.07030000  0.04000000  1.0
  O  O1908  1  0.74813000  0.42023000  0.02423000  1.0
  O  O1909  1  0.78889000  0.44804000  0.05269000  1.0
  O  O1910  1  0.82325000  0.52756000  0.97113000  1.0
  O  O1911  1  0.01980000  0.92970000  0.96000000  1.0
  O  O1912  1  0.25187000  0.57977000  0.02423000  1.0
  O  O1913  1  0.21111000  0.55196000  0.05269000  1.0
  O  O1914  1  0.17675000  0.47244000  0.97113000  1.0
  O  O1915  1  0.98020000  0.07030000  0.96000000  1.0
  O  O1916  1  0.97577000  0.25187000  0.42023000  1.0
  O  O1917  1  0.94731000  0.21111000  0.44804000  1.0
  O  O1918  1  0.02887000  0.17675000  0.52756000  1.0
  O  O1919  1  0.04000000  0.98020000  0.92970000  1.0
  O  O1920  1  0.97577000  0.74813000  0.57977000  1.0
  O  O1921  1  0.94731000  0.78889000  0.55196000  1.0
  O  O1922  1  0.02887000  0.82325000  0.47244000  1.0
  O  O1923  1  0.04000000  0.01980000  0.07030000  1.0
  O  O1924  1  0.02423000  0.74813000  0.42023000  1.0
  O  O1925  1  0.05269000  0.78889000  0.44804000  1.0
  O  O1926  1  0.97113000  0.82325000  0.52756000  1.0
  O  O1927  1  0.96000000  0.01980000  0.92970000  1.0
  O  O1928  1  0.02423000  0.25187000  0.57977000  1.0
  O  O1929  1  0.05269000  0.21111000  0.55196000  1.0
  O  O1930  1  0.97113000  0.17675000  0.47244000  1.0
  O  O1931  1  0.96000000  0.98020000  0.07030000  1.0
  O  O1932  1  0.42023000  0.97577000  0.25187000  1.0
  O  O1933  1  0.44804000  0.94731000  0.21111000  1.0
  O  O1934  1  0.52756000  0.02887000  0.17675000  1.0
  O  O1935  1  0.92970000  0.04000000  0.98020000  1.0
  O  O1936  1  0.57977000  0.97577000  0.74813000  1.0
  O  O1937  1  0.55196000  0.94731000  0.78889000  1.0
  O  O1938  1  0.47244000  0.02887000  0.82325000  1.0
  O  O1939  1  0.07030000  0.04000000  0.01980000  1.0
  O  O1940  1  0.42023000  0.02423000  0.74813000  1.0
  O  O1941  1  0.44804000  0.05269000  0.78889000  1.0
  O  O1942  1  0.52756000  0.97113000  0.82325000  1.0
  O  O1943  1  0.92970000  0.96000000  0.01980000  1.0
  O  O1944  1  0.57977000  0.02423000  0.25187000  1.0
  O  O1945  1  0.55196000  0.05269000  0.21111000  1.0
  O  O1946  1  0.47244000  0.97113000  0.17675000  1.0
  O  O1947  1  0.07030000  0.96000000  0.98020000  1.0
  O  O1948  1  0.92023000  0.75187000  0.52423000  1.0
  O  O1949  1  0.94804000  0.71111000  0.55269000  1.0
  O  O1950  1  0.02756000  0.67675000  0.47113000  1.0
  O  O1951  1  0.42970000  0.48020000  0.46000000  1.0
  O  O1952  1  0.07977000  0.24813000  0.52423000  1.0
  O  O1953  1  0.05196000  0.28889000  0.55269000  1.0
  O  O1954  1  0.97244000  0.32325000  0.47113000  1.0
  O  O1955  1  0.57030000  0.51980000  0.46000000  1.0
  O  O1956  1  0.92023000  0.24813000  0.47577000  1.0
  O  O1957  1  0.94804000  0.28889000  0.44731000  1.0
  O  O1958  1  0.02756000  0.32325000  0.52887000  1.0
  O  O1959  1  0.42970000  0.51980000  0.54000000  1.0
  O  O1960  1  0.07977000  0.75187000  0.47577000  1.0
  O  O1961  1  0.05196000  0.71111000  0.44731000  1.0
  O  O1962  1  0.97244000  0.67675000  0.52887000  1.0
  O  O1963  1  0.57030000  0.48020000  0.54000000  1.0
  O  O1964  1  0.75187000  0.47577000  0.07977000  1.0
  O  O1965  1  0.71111000  0.44731000  0.05196000  1.0
  O  O1966  1  0.67675000  0.52887000  0.97244000  1.0
  O  O1967  1  0.48020000  0.54000000  0.57030000  1.0
  O  O1968  1  0.24813000  0.47577000  0.92023000  1.0
  O  O1969  1  0.28889000  0.44731000  0.94804000  1.0
  O  O1970  1  0.32325000  0.52887000  0.02756000  1.0
  O  O1971  1  0.51980000  0.54000000  0.42970000  1.0
  O  O1972  1  0.24813000  0.52423000  0.07977000  1.0
  O  O1973  1  0.28889000  0.55269000  0.05196000  1.0
  O  O1974  1  0.32325000  0.47113000  0.97244000  1.0
  O  O1975  1  0.51980000  0.46000000  0.57030000  1.0
  O  O1976  1  0.75187000  0.52423000  0.92023000  1.0
  O  O1977  1  0.71111000  0.55269000  0.94804000  1.0
  O  O1978  1  0.67675000  0.47113000  0.02756000  1.0
  O  O1979  1  0.48020000  0.46000000  0.42970000  1.0
  O  O1980  1  0.47577000  0.92023000  0.24813000  1.0
  O  O1981  1  0.44731000  0.94804000  0.28889000  1.0
  O  O1982  1  0.52887000  0.02756000  0.32325000  1.0
  O  O1983  1  0.54000000  0.42970000  0.51980000  1.0
  O  O1984  1  0.47577000  0.07977000  0.75187000  1.0
  O  O1985  1  0.44731000  0.05196000  0.71111000  1.0
  O  O1986  1  0.52887000  0.97244000  0.67675000  1.0
  O  O1987  1  0.54000000  0.57030000  0.48020000  1.0
  O  O1988  1  0.52423000  0.92023000  0.75187000  1.0
  O  O1989  1  0.55269000  0.94804000  0.71111000  1.0
  O  O1990  1  0.47113000  0.02756000  0.67675000  1.0
  O  O1991  1  0.46000000  0.42970000  0.48020000  1.0
  O  O1992  1  0.52423000  0.07977000  0.24813000  1.0
  O  O1993  1  0.55269000  0.05196000  0.28889000  1.0
  O  O1994  1  0.47113000  0.97244000  0.32325000  1.0
  O  O1995  1  0.46000000  0.57030000  0.51980000  1.0
  O  O1996  1  0.74813000  0.57977000  0.02423000  1.0
  O  O1997  1  0.78889000  0.55196000  0.05269000  1.0
  O  O1998  1  0.82325000  0.47244000  0.97113000  1.0
  O  O1999  1  0.01980000  0.07030000  0.96000000  1.0
  O  O2000  1  0.25187000  0.42023000  0.02423000  1.0
  O  O2001  1  0.21111000  0.44804000  0.05269000  1.0
  O  O2002  1  0.17675000  0.52756000  0.97113000  1.0
  O  O2003  1  0.98020000  0.92970000  0.96000000  1.0
  O  O2004  1  0.25187000  0.57977000  0.97577000  1.0
  O  O2005  1  0.21111000  0.55196000  0.94731000  1.0
  O  O2006  1  0.17675000  0.47244000  0.02887000  1.0
  O  O2007  1  0.98020000  0.07030000  0.04000000  1.0
  O  O2008  1  0.74813000  0.42023000  0.97577000  1.0
  O  O2009  1  0.78889000  0.44804000  0.94731000  1.0
  O  O2010  1  0.82325000  0.52756000  0.02887000  1.0
  O  O2011  1  0.01980000  0.92970000  0.04000000  1.0
  O  O2012  1  0.02423000  0.74813000  0.57977000  1.0
  O  O2013  1  0.05269000  0.78889000  0.55196000  1.0
  O  O2014  1  0.97113000  0.82325000  0.47244000  1.0
  O  O2015  1  0.96000000  0.01980000  0.07030000  1.0
  O  O2016  1  0.02423000  0.25187000  0.42023000  1.0
  O  O2017  1  0.05269000  0.21111000  0.44804000  1.0
  O  O2018  1  0.97113000  0.17675000  0.52756000  1.0
  O  O2019  1  0.96000000  0.98020000  0.92970000  1.0
  O  O2020  1  0.97577000  0.25187000  0.57977000  1.0
  O  O2021  1  0.94731000  0.21111000  0.55196000  1.0
  O  O2022  1  0.02887000  0.17675000  0.47244000  1.0
  O  O2023  1  0.04000000  0.98020000  0.07030000  1.0
  O  O2024  1  0.97577000  0.74813000  0.42023000  1.0
  O  O2025  1  0.94731000  0.78889000  0.44804000  1.0
  O  O2026  1  0.02887000  0.82325000  0.52756000  1.0
  O  O2027  1  0.04000000  0.01980000  0.92970000  1.0
  O  O2028  1  0.57977000  0.02423000  0.74813000  1.0
  O  O2029  1  0.55196000  0.05269000  0.78889000  1.0
  O  O2030  1  0.47244000  0.97113000  0.82325000  1.0
  O  O2031  1  0.07030000  0.96000000  0.01980000  1.0
  O  O2032  1  0.42023000  0.02423000  0.25187000  1.0
  O  O2033  1  0.44804000  0.05269000  0.21111000  1.0
  O  O2034  1  0.52756000  0.97113000  0.17675000  1.0
  O  O2035  1  0.92970000  0.96000000  0.98020000  1.0
  O  O2036  1  0.57977000  0.97577000  0.25187000  1.0
  O  O2037  1  0.55196000  0.94731000  0.21111000  1.0
  O  O2038  1  0.47244000  0.02887000  0.17675000  1.0
  O  O2039  1  0.07030000  0.04000000  0.98020000  1.0
  O  O2040  1  0.42023000  0.97577000  0.74813000  1.0
  O  O2041  1  0.44804000  0.94731000  0.78889000  1.0
  O  O2042  1  0.52756000  0.02887000  0.82325000  1.0
  O  O2043  1  0.92970000  0.04000000  0.01980000  1.0
  O  O2044  1  0.07977000  0.24813000  0.47577000  1.0
  O  O2045  1  0.05196000  0.28889000  0.44731000  1.0
  O  O2046  1  0.97244000  0.32325000  0.52887000  1.0
  O  O2047  1  0.57030000  0.51980000  0.54000000  1.0
  O  O2048  1  0.92023000  0.75187000  0.47577000  1.0
  O  O2049  1  0.94804000  0.71111000  0.44731000  1.0
  O  O2050  1  0.02756000  0.67675000  0.52887000  1.0
  O  O2051  1  0.42970000  0.48020000  0.54000000  1.0
  O  O2052  1  0.07977000  0.75187000  0.52423000  1.0
  O  O2053  1  0.05196000  0.71111000  0.55269000  1.0
  O  O2054  1  0.97244000  0.67675000  0.47113000  1.0
  O  O2055  1  0.57030000  0.48020000  0.46000000  1.0
  O  O2056  1  0.92023000  0.24813000  0.52423000  1.0
  O  O2057  1  0.94804000  0.28889000  0.55269000  1.0
  O  O2058  1  0.02756000  0.32325000  0.47113000  1.0
  O  O2059  1  0.42970000  0.51980000  0.46000000  1.0
  O  O2060  1  0.24813000  0.52423000  0.92023000  1.0
  O  O2061  1  0.28889000  0.55269000  0.94804000  1.0
  O  O2062  1  0.32325000  0.47113000  0.02756000  1.0
  O  O2063  1  0.51980000  0.46000000  0.42970000  1.0
  O  O2064  1  0.75187000  0.52423000  0.07977000  1.0
  O  O2065  1  0.71111000  0.55269000  0.05196000  1.0
  O  O2066  1  0.67675000  0.47113000  0.97244000  1.0
  O  O2067  1  0.48020000  0.46000000  0.57030000  1.0
  O  O2068  1  0.75187000  0.47577000  0.92023000  1.0
  O  O2069  1  0.71111000  0.44731000  0.94804000  1.0
  O  O2070  1  0.67675000  0.52887000  0.02756000  1.0
  O  O2071  1  0.48020000  0.54000000  0.42970000  1.0
  O  O2072  1  0.24813000  0.47577000  0.07977000  1.0
  O  O2073  1  0.28889000  0.44731000  0.05196000  1.0
  O  O2074  1  0.32325000  0.52887000  0.97244000  1.0
  O  O2075  1  0.51980000  0.54000000  0.57030000  1.0
  O  O2076  1  0.52423000  0.07977000  0.75187000  1.0
  O  O2077  1  0.55269000  0.05196000  0.71111000  1.0
  O  O2078  1  0.47113000  0.97244000  0.67675000  1.0
  O  O2079  1  0.46000000  0.57030000  0.48020000  1.0
  O  O2080  1  0.52423000  0.92023000  0.24813000  1.0
  O  O2081  1  0.55269000  0.94804000  0.28889000  1.0
  O  O2082  1  0.47113000  0.02756000  0.32325000  1.0
  O  O2083  1  0.46000000  0.42970000  0.51980000  1.0
  O  O2084  1  0.47577000  0.07977000  0.24813000  1.0
  O  O2085  1  0.44731000  0.05196000  0.28889000  1.0
  O  O2086  1  0.52887000  0.97244000  0.32325000  1.0
  O  O2087  1  0.54000000  0.57030000  0.51980000  1.0
  O  O2088  1  0.47577000  0.92023000  0.75187000  1.0
  O  O2089  1  0.44731000  0.94804000  0.71111000  1.0
  O  O2090  1  0.52887000  0.02756000  0.67675000  1.0
  O  O2091  1  0.54000000  0.42970000  0.48020000  1.0
  O  O2092  1  0.22216000  0.46032000  0.00000000  1.0
  O  O2093  1  0.27268000  0.46781000  0.00000000  1.0
  O  O2094  1  0.01780000  0.95660000  0.00000000  1.0
  O  O2095  1  0.77784000  0.53968000  0.00000000  1.0
  O  O2096  1  0.72732000  0.53219000  0.00000000  1.0
  O  O2097  1  0.98220000  0.04340000  0.00000000  1.0
  O  O2098  1  0.77784000  0.46032000  0.00000000  1.0
  O  O2099  1  0.72732000  0.46781000  0.00000000  1.0
  O  O2100  1  0.98220000  0.95660000  0.00000000  1.0
  O  O2101  1  0.22216000  0.53968000  0.00000000  1.0
  O  O2102  1  0.27268000  0.53219000  0.00000000  1.0
  O  O2103  1  0.01780000  0.04340000  0.00000000  1.0
  O  O2104  1  0.00000000  0.22216000  0.46032000  1.0
  O  O2105  1  0.00000000  0.27268000  0.46781000  1.0
  O  O2106  1  0.00000000  0.01780000  0.95660000  1.0
  O  O2107  1  0.00000000  0.77784000  0.53968000  1.0
  O  O2108  1  0.00000000  0.72732000  0.53219000  1.0
  O  O2109  1  0.00000000  0.98220000  0.04340000  1.0
  O  O2110  1  0.00000000  0.77784000  0.46032000  1.0
  O  O2111  1  0.00000000  0.72732000  0.46781000  1.0
  O  O2112  1  0.00000000  0.98220000  0.95660000  1.0
  O  O2113  1  0.00000000  0.22216000  0.53968000  1.0
  O  O2114  1  0.00000000  0.27268000  0.53219000  1.0
  O  O2115  1  0.00000000  0.01780000  0.04340000  1.0
  O  O2116  1  0.46032000  0.00000000  0.22216000  1.0
  O  O2117  1  0.46781000  0.00000000  0.27268000  1.0
  O  O2118  1  0.95660000  0.00000000  0.01780000  1.0
  O  O2119  1  0.53968000  0.00000000  0.77784000  1.0
  O  O2120  1  0.53219000  0.00000000  0.72732000  1.0
  O  O2121  1  0.04340000  0.00000000  0.98220000  1.0
  O  O2122  1  0.46032000  0.00000000  0.77784000  1.0
  O  O2123  1  0.46781000  0.00000000  0.72732000  1.0
  O  O2124  1  0.95660000  0.00000000  0.98220000  1.0
  O  O2125  1  0.53968000  0.00000000  0.22216000  1.0
  O  O2126  1  0.53219000  0.00000000  0.27268000  1.0
  O  O2127  1  0.04340000  0.00000000  0.01780000  1.0
  O  O2128  1  0.96032000  0.72216000  0.50000000  1.0
  O  O2129  1  0.96781000  0.77268000  0.50000000  1.0
  O  O2130  1  0.45660000  0.51780000  0.50000000  1.0
  O  O2131  1  0.03968000  0.27784000  0.50000000  1.0
  O  O2132  1  0.03219000  0.22732000  0.50000000  1.0
  O  O2133  1  0.54340000  0.48220000  0.50000000  1.0
  O  O2134  1  0.96032000  0.27784000  0.50000000  1.0
  O  O2135  1  0.96781000  0.22732000  0.50000000  1.0
  O  O2136  1  0.45660000  0.48220000  0.50000000  1.0
  O  O2137  1  0.03968000  0.72216000  0.50000000  1.0
  O  O2138  1  0.03219000  0.77268000  0.50000000  1.0
  O  O2139  1  0.54340000  0.51780000  0.50000000  1.0
  O  O2140  1  0.72216000  0.50000000  0.03968000  1.0
  O  O2141  1  0.77268000  0.50000000  0.03219000  1.0
  O  O2142  1  0.51780000  0.50000000  0.54340000  1.0
  O  O2143  1  0.27784000  0.50000000  0.96032000  1.0
  O  O2144  1  0.22732000  0.50000000  0.96781000  1.0
  O  O2145  1  0.48220000  0.50000000  0.45660000  1.0
  O  O2146  1  0.27784000  0.50000000  0.03968000  1.0
  O  O2147  1  0.22732000  0.50000000  0.03219000  1.0
  O  O2148  1  0.48220000  0.50000000  0.54340000  1.0
  O  O2149  1  0.72216000  0.50000000  0.96032000  1.0
  O  O2150  1  0.77268000  0.50000000  0.96781000  1.0
  O  O2151  1  0.51780000  0.50000000  0.45660000  1.0
  O  O2152  1  0.50000000  0.96032000  0.27784000  1.0
  O  O2153  1  0.50000000  0.96781000  0.22732000  1.0
  O  O2154  1  0.50000000  0.45660000  0.48220000  1.0
  O  O2155  1  0.50000000  0.03968000  0.72216000  1.0
  O  O2156  1  0.50000000  0.03219000  0.77268000  1.0
  O  O2157  1  0.50000000  0.54340000  0.51780000  1.0
  O  O2158  1  0.50000000  0.96032000  0.72216000  1.0
  O  O2159  1  0.50000000  0.96781000  0.77268000  1.0
  O  O2160  1  0.50000000  0.45660000  0.51780000  1.0
  O  O2161  1  0.50000000  0.03968000  0.27784000  1.0
  O  O2162  1  0.50000000  0.03219000  0.22732000  1.0
  O  O2163  1  0.50000000  0.54340000  0.48220000  1.0
  F  F2164  1  0.02770000  0.64340000  0.18260000  1.0
  F  F2165  1  0.06580000  0.61170000  0.16330000  1.0
  F  F2166  1  0.06750000  0.66100000  0.08410000  1.0
  F  F2167  1  0.02580000  0.69100000  0.10400000  1.0
  F  F2168  1  0.04590000  0.72030000  0.14280000  1.0
  F  F2169  1  0.04510000  0.77370000  0.13100000  1.0
  F  F2170  1  0.04610000  0.69230000  0.19150000  1.0
  F  F2171  1  0.29370000  0.24540000  0.04530000  1.0
  F  F2172  1  0.97230000  0.35660000  0.18260000  1.0
  F  F2173  1  0.93420000  0.38830000  0.16330000  1.0
  F  F2174  1  0.93250000  0.33900000  0.08410000  1.0
  F  F2175  1  0.97420000  0.30900000  0.10400000  1.0
  F  F2176  1  0.95410000  0.27970000  0.14280000  1.0
  F  F2177  1  0.95490000  0.22630000  0.13100000  1.0
  F  F2178  1  0.95390000  0.30770000  0.19150000  1.0
  F  F2179  1  0.70630000  0.75460000  0.04530000  1.0
  F  F2180  1  0.97230000  0.64340000  0.81740000  1.0
  F  F2181  1  0.93420000  0.61170000  0.83670000  1.0
  F  F2182  1  0.93250000  0.66100000  0.91590000  1.0
  F  F2183  1  0.97420000  0.69100000  0.89600000  1.0
  F  F2184  1  0.95410000  0.72030000  0.85720000  1.0
  F  F2185  1  0.95490000  0.77370000  0.86900000  1.0
  F  F2186  1  0.95390000  0.69230000  0.80850000  1.0
  F  F2187  1  0.70630000  0.24540000  0.95470000  1.0
  F  F2188  1  0.02770000  0.35660000  0.81740000  1.0
  F  F2189  1  0.06580000  0.38830000  0.83670000  1.0
  F  F2190  1  0.06750000  0.33900000  0.91590000  1.0
  F  F2191  1  0.02580000  0.30900000  0.89600000  1.0
  F  F2192  1  0.04590000  0.27970000  0.85720000  1.0
  F  F2193  1  0.04510000  0.22630000  0.86900000  1.0
  F  F2194  1  0.04610000  0.30770000  0.80850000  1.0
  F  F2195  1  0.29370000  0.75460000  0.95470000  1.0
  F  F2196  1  0.18260000  0.02770000  0.64340000  1.0
  F  F2197  1  0.16330000  0.06580000  0.61170000  1.0
  F  F2198  1  0.08410000  0.06750000  0.66100000  1.0
  F  F2199  1  0.10400000  0.02580000  0.69100000  1.0
  F  F2200  1  0.14280000  0.04590000  0.72030000  1.0
  F  F2201  1  0.13100000  0.04510000  0.77370000  1.0
  F  F2202  1  0.19150000  0.04610000  0.69230000  1.0
  F  F2203  1  0.04530000  0.29370000  0.24540000  1.0
  F  F2204  1  0.18260000  0.97230000  0.35660000  1.0
  F  F2205  1  0.16330000  0.93420000  0.38830000  1.0
  F  F2206  1  0.08410000  0.93250000  0.33900000  1.0
  F  F2207  1  0.10400000  0.97420000  0.30900000  1.0
  F  F2208  1  0.14280000  0.95410000  0.27970000  1.0
  F  F2209  1  0.13100000  0.95490000  0.22630000  1.0
  F  F2210  1  0.19150000  0.95390000  0.30770000  1.0
  F  F2211  1  0.04530000  0.70630000  0.75460000  1.0
  F  F2212  1  0.81740000  0.97230000  0.64340000  1.0
  F  F2213  1  0.83670000  0.93420000  0.61170000  1.0
  F  F2214  1  0.91590000  0.93250000  0.66100000  1.0
  F  F2215  1  0.89600000  0.97420000  0.69100000  1.0
  F  F2216  1  0.85720000  0.95410000  0.72030000  1.0
  F  F2217  1  0.86900000  0.95490000  0.77370000  1.0
  F  F2218  1  0.80850000  0.95390000  0.69230000  1.0
  F  F2219  1  0.95470000  0.70630000  0.24540000  1.0
  F  F2220  1  0.81740000  0.02770000  0.35660000  1.0
  F  F2221  1  0.83670000  0.06580000  0.38830000  1.0
  F  F2222  1  0.91590000  0.06750000  0.33900000  1.0
  F  F2223  1  0.89600000  0.02580000  0.30900000  1.0
  F  F2224  1  0.85720000  0.04590000  0.27970000  1.0
  F  F2225  1  0.86900000  0.04510000  0.22630000  1.0
  F  F2226  1  0.80850000  0.04610000  0.30770000  1.0
  F  F2227  1  0.95470000  0.29370000  0.75460000  1.0
  F  F2228  1  0.64340000  0.18260000  0.02770000  1.0
  F  F2229  1  0.61170000  0.16330000  0.06580000  1.0
  F  F2230  1  0.66100000  0.08410000  0.06750000  1.0
  F  F2231  1  0.69100000  0.10400000  0.02580000  1.0
  F  F2232  1  0.72030000  0.14280000  0.04590000  1.0
  F  F2233  1  0.77370000  0.13100000  0.04510000  1.0
  F  F2234  1  0.69230000  0.19150000  0.04610000  1.0
  F  F2235  1  0.24540000  0.04530000  0.29370000  1.0
  F  F2236  1  0.35660000  0.18260000  0.97230000  1.0
  F  F2237  1  0.38830000  0.16330000  0.93420000  1.0
  F  F2238  1  0.33900000  0.08410000  0.93250000  1.0
  F  F2239  1  0.30900000  0.10400000  0.97420000  1.0
  F  F2240  1  0.27970000  0.14280000  0.95410000  1.0
  F  F2241  1  0.22630000  0.13100000  0.95490000  1.0
  F  F2242  1  0.30770000  0.19150000  0.95390000  1.0
  F  F2243  1  0.75460000  0.04530000  0.70630000  1.0
  F  F2244  1  0.64340000  0.81740000  0.97230000  1.0
  F  F2245  1  0.61170000  0.83670000  0.93420000  1.0
  F  F2246  1  0.66100000  0.91590000  0.93250000  1.0
  F  F2247  1  0.69100000  0.89600000  0.97420000  1.0
  F  F2248  1  0.72030000  0.85720000  0.95410000  1.0
  F  F2249  1  0.77370000  0.86900000  0.95490000  1.0
  F  F2250  1  0.69230000  0.80850000  0.95390000  1.0
  F  F2251  1  0.24540000  0.95470000  0.70630000  1.0
  F  F2252  1  0.35660000  0.81740000  0.02770000  1.0
  F  F2253  1  0.38830000  0.83670000  0.06580000  1.0
  F  F2254  1  0.33900000  0.91590000  0.06750000  1.0
  F  F2255  1  0.30900000  0.89600000  0.02580000  1.0
  F  F2256  1  0.27970000  0.85720000  0.04590000  1.0
  F  F2257  1  0.22630000  0.86900000  0.04510000  1.0
  F  F2258  1  0.30770000  0.80850000  0.04610000  1.0
  F  F2259  1  0.75460000  0.95470000  0.29370000  1.0
  F  F2260  1  0.14340000  0.52770000  0.31740000  1.0
  F  F2261  1  0.11170000  0.56580000  0.33670000  1.0
  F  F2262  1  0.16100000  0.56750000  0.41590000  1.0
  F  F2263  1  0.19100000  0.52580000  0.39600000  1.0
  F  F2264  1  0.22030000  0.54590000  0.35720000  1.0
  F  F2265  1  0.27370000  0.54510000  0.36900000  1.0
  F  F2266  1  0.19230000  0.54610000  0.30850000  1.0
  F  F2267  1  0.74540000  0.79370000  0.45470000  1.0
  F  F2268  1  0.85660000  0.47230000  0.31740000  1.0
  F  F2269  1  0.88830000  0.43420000  0.33670000  1.0
  F  F2270  1  0.83900000  0.43250000  0.41590000  1.0
  F  F2271  1  0.80900000  0.47420000  0.39600000  1.0
  F  F2272  1  0.77970000  0.45410000  0.35720000  1.0
  F  F2273  1  0.72630000  0.45490000  0.36900000  1.0
  F  F2274  1  0.80770000  0.45390000  0.30850000  1.0
  F  F2275  1  0.25460000  0.20630000  0.45470000  1.0
  F  F2276  1  0.14340000  0.47230000  0.68260000  1.0
  F  F2277  1  0.11170000  0.43420000  0.66330000  1.0
  F  F2278  1  0.16100000  0.43250000  0.58410000  1.0
  F  F2279  1  0.19100000  0.47420000  0.60400000  1.0
  F  F2280  1  0.22030000  0.45410000  0.64280000  1.0
  F  F2281  1  0.27370000  0.45490000  0.63100000  1.0
  F  F2282  1  0.19230000  0.45390000  0.69150000  1.0
  F  F2283  1  0.74540000  0.20630000  0.54530000  1.0
  F  F2284  1  0.85660000  0.52770000  0.68260000  1.0
  F  F2285  1  0.88830000  0.56580000  0.66330000  1.0
  F  F2286  1  0.83900000  0.56750000  0.58410000  1.0
  F  F2287  1  0.80900000  0.52580000  0.60400000  1.0
  F  F2288  1  0.77970000  0.54590000  0.64280000  1.0
  F  F2289  1  0.72630000  0.54510000  0.63100000  1.0
  F  F2290  1  0.80770000  0.54610000  0.69150000  1.0
  F  F2291  1  0.25460000  0.79370000  0.54530000  1.0
  F  F2292  1  0.52770000  0.68260000  0.85660000  1.0
  F  F2293  1  0.56580000  0.66330000  0.88830000  1.0
  F  F2294  1  0.56750000  0.58410000  0.83900000  1.0
  F  F2295  1  0.52580000  0.60400000  0.80900000  1.0
  F  F2296  1  0.54590000  0.64280000  0.77970000  1.0
  F  F2297  1  0.54510000  0.63100000  0.72630000  1.0
  F  F2298  1  0.54610000  0.69150000  0.80770000  1.0
  F  F2299  1  0.79370000  0.54530000  0.25460000  1.0
  F  F2300  1  0.47230000  0.68260000  0.14340000  1.0
  F  F2301  1  0.43420000  0.66330000  0.11170000  1.0
  F  F2302  1  0.43250000  0.58410000  0.16100000  1.0
  F  F2303  1  0.47420000  0.60400000  0.19100000  1.0
  F  F2304  1  0.45410000  0.64280000  0.22030000  1.0
  F  F2305  1  0.45490000  0.63100000  0.27370000  1.0
  F  F2306  1  0.45390000  0.69150000  0.19230000  1.0
  F  F2307  1  0.20630000  0.54530000  0.74540000  1.0
  F  F2308  1  0.47230000  0.31740000  0.85660000  1.0
  F  F2309  1  0.43420000  0.33670000  0.88830000  1.0
  F  F2310  1  0.43250000  0.41590000  0.83900000  1.0
  F  F2311  1  0.47420000  0.39600000  0.80900000  1.0
  F  F2312  1  0.45410000  0.35720000  0.77970000  1.0
  F  F2313  1  0.45490000  0.36900000  0.72630000  1.0
  F  F2314  1  0.45390000  0.30850000  0.80770000  1.0
  F  F2315  1  0.20630000  0.45470000  0.25460000  1.0
  F  F2316  1  0.52770000  0.31740000  0.14340000  1.0
  F  F2317  1  0.56580000  0.33670000  0.11170000  1.0
  F  F2318  1  0.56750000  0.41590000  0.16100000  1.0
  F  F2319  1  0.52580000  0.39600000  0.19100000  1.0
  F  F2320  1  0.54590000  0.35720000  0.22030000  1.0
  F  F2321  1  0.54510000  0.36900000  0.27370000  1.0
  F  F2322  1  0.54610000  0.30850000  0.19230000  1.0
  F  F2323  1  0.79370000  0.45470000  0.74540000  1.0
  F  F2324  1  0.68260000  0.14340000  0.47230000  1.0
  F  F2325  1  0.66330000  0.11170000  0.43420000  1.0
  F  F2326  1  0.58410000  0.16100000  0.43250000  1.0
  F  F2327  1  0.60400000  0.19100000  0.47420000  1.0
  F  F2328  1  0.64280000  0.22030000  0.45410000  1.0
  F  F2329  1  0.63100000  0.27370000  0.45490000  1.0
  F  F2330  1  0.69150000  0.19230000  0.45390000  1.0
  F  F2331  1  0.54530000  0.74540000  0.20630000  1.0
  F  F2332  1  0.68260000  0.85660000  0.52770000  1.0
  F  F2333  1  0.66330000  0.88830000  0.56580000  1.0
  F  F2334  1  0.58410000  0.83900000  0.56750000  1.0
  F  F2335  1  0.60400000  0.80900000  0.52580000  1.0
  F  F2336  1  0.64280000  0.77970000  0.54590000  1.0
  F  F2337  1  0.63100000  0.72630000  0.54510000  1.0
  F  F2338  1  0.69150000  0.80770000  0.54610000  1.0
  F  F2339  1  0.54530000  0.25460000  0.79370000  1.0
  F  F2340  1  0.31740000  0.14340000  0.52770000  1.0
  F  F2341  1  0.33670000  0.11170000  0.56580000  1.0
  F  F2342  1  0.41590000  0.16100000  0.56750000  1.0
  F  F2343  1  0.39600000  0.19100000  0.52580000  1.0
  F  F2344  1  0.35720000  0.22030000  0.54590000  1.0
  F  F2345  1  0.36900000  0.27370000  0.54510000  1.0
  F  F2346  1  0.30850000  0.19230000  0.54610000  1.0
  F  F2347  1  0.45470000  0.74540000  0.79370000  1.0
  F  F2348  1  0.31740000  0.85660000  0.47230000  1.0
  F  F2349  1  0.33670000  0.88830000  0.43420000  1.0
  F  F2350  1  0.41590000  0.83900000  0.43250000  1.0
  F  F2351  1  0.39600000  0.80900000  0.47420000  1.0
  F  F2352  1  0.35720000  0.77970000  0.45410000  1.0
  F  F2353  1  0.36900000  0.72630000  0.45490000  1.0
  F  F2354  1  0.30850000  0.80770000  0.45390000  1.0
  F  F2355  1  0.45470000  0.25460000  0.20630000  1.0
  F  F2356  1  0.97230000  0.35660000  0.81740000  1.0
  F  F2357  1  0.93420000  0.38830000  0.83670000  1.0
  F  F2358  1  0.93250000  0.33900000  0.91590000  1.0
  F  F2359  1  0.97420000  0.30900000  0.89600000  1.0
  F  F2360  1  0.95410000  0.27970000  0.85720000  1.0
  F  F2361  1  0.95490000  0.22630000  0.86900000  1.0
  F  F2362  1  0.95390000  0.30770000  0.80850000  1.0
  F  F2363  1  0.70630000  0.75460000  0.95470000  1.0
  F  F2364  1  0.02770000  0.64340000  0.81740000  1.0
  F  F2365  1  0.06580000  0.61170000  0.83670000  1.0
  F  F2366  1  0.06750000  0.66100000  0.91590000  1.0
  F  F2367  1  0.02580000  0.69100000  0.89600000  1.0
  F  F2368  1  0.04590000  0.72030000  0.85720000  1.0
  F  F2369  1  0.04510000  0.77370000  0.86900000  1.0
  F  F2370  1  0.04610000  0.69230000  0.80850000  1.0
  F  F2371  1  0.29370000  0.24540000  0.95470000  1.0
  F  F2372  1  0.02770000  0.35660000  0.18260000  1.0
  F  F2373  1  0.06580000  0.38830000  0.16330000  1.0
  F  F2374  1  0.06750000  0.33900000  0.08410000  1.0
  F  F2375  1  0.02580000  0.30900000  0.10400000  1.0
  F  F2376  1  0.04590000  0.27970000  0.14280000  1.0
  F  F2377  1  0.04510000  0.22630000  0.13100000  1.0
  F  F2378  1  0.04610000  0.30770000  0.19150000  1.0
  F  F2379  1  0.29370000  0.75460000  0.04530000  1.0
  F  F2380  1  0.97230000  0.64340000  0.18260000  1.0
  F  F2381  1  0.93420000  0.61170000  0.16330000  1.0
  F  F2382  1  0.93250000  0.66100000  0.08410000  1.0
  F  F2383  1  0.97420000  0.69100000  0.10400000  1.0
  F  F2384  1  0.95410000  0.72030000  0.14280000  1.0
  F  F2385  1  0.95490000  0.77370000  0.13100000  1.0
  F  F2386  1  0.95390000  0.69230000  0.19150000  1.0
  F  F2387  1  0.70630000  0.24540000  0.04530000  1.0
  F  F2388  1  0.81740000  0.97230000  0.35660000  1.0
  F  F2389  1  0.83670000  0.93420000  0.38830000  1.0
  F  F2390  1  0.91590000  0.93250000  0.33900000  1.0
  F  F2391  1  0.89600000  0.97420000  0.30900000  1.0
  F  F2392  1  0.85720000  0.95410000  0.27970000  1.0
  F  F2393  1  0.86900000  0.95490000  0.22630000  1.0
  F  F2394  1  0.80850000  0.95390000  0.30770000  1.0
  F  F2395  1  0.95470000  0.70630000  0.75460000  1.0
  F  F2396  1  0.81740000  0.02770000  0.64340000  1.0
  F  F2397  1  0.83670000  0.06580000  0.61170000  1.0
  F  F2398  1  0.91590000  0.06750000  0.66100000  1.0
  F  F2399  1  0.89600000  0.02580000  0.69100000  1.0
  F  F2400  1  0.85720000  0.04590000  0.72030000  1.0
  F  F2401  1  0.86900000  0.04510000  0.77370000  1.0
  F  F2402  1  0.80850000  0.04610000  0.69230000  1.0
  F  F2403  1  0.95470000  0.29370000  0.24540000  1.0
  F  F2404  1  0.18260000  0.02770000  0.35660000  1.0
  F  F2405  1  0.16330000  0.06580000  0.38830000  1.0
  F  F2406  1  0.08410000  0.06750000  0.33900000  1.0
  F  F2407  1  0.10400000  0.02580000  0.30900000  1.0
  F  F2408  1  0.14280000  0.04590000  0.27970000  1.0
  F  F2409  1  0.13100000  0.04510000  0.22630000  1.0
  F  F2410  1  0.19150000  0.04610000  0.30770000  1.0
  F  F2411  1  0.04530000  0.29370000  0.75460000  1.0
  F  F2412  1  0.18260000  0.97230000  0.64340000  1.0
  F  F2413  1  0.16330000  0.93420000  0.61170000  1.0
  F  F2414  1  0.08410000  0.93250000  0.66100000  1.0
  F  F2415  1  0.10400000  0.97420000  0.69100000  1.0
  F  F2416  1  0.14280000  0.95410000  0.72030000  1.0
  F  F2417  1  0.13100000  0.95490000  0.77370000  1.0
  F  F2418  1  0.19150000  0.95390000  0.69230000  1.0
  F  F2419  1  0.04530000  0.70630000  0.24540000  1.0
  F  F2420  1  0.35660000  0.81740000  0.97230000  1.0
  F  F2421  1  0.38830000  0.83670000  0.93420000  1.0
  F  F2422  1  0.33900000  0.91590000  0.93250000  1.0
  F  F2423  1  0.30900000  0.89600000  0.97420000  1.0
  F  F2424  1  0.27970000  0.85720000  0.95410000  1.0
  F  F2425  1  0.22630000  0.86900000  0.95490000  1.0
  F  F2426  1  0.30770000  0.80850000  0.95390000  1.0
  F  F2427  1  0.75460000  0.95470000  0.70630000  1.0
  F  F2428  1  0.64340000  0.81740000  0.02770000  1.0
  F  F2429  1  0.61170000  0.83670000  0.06580000  1.0
  F  F2430  1  0.66100000  0.91590000  0.06750000  1.0
  F  F2431  1  0.69100000  0.89600000  0.02580000  1.0
  F  F2432  1  0.72030000  0.85720000  0.04590000  1.0
  F  F2433  1  0.77370000  0.86900000  0.04510000  1.0
  F  F2434  1  0.69230000  0.80850000  0.04610000  1.0
  F  F2435  1  0.24540000  0.95470000  0.29370000  1.0
  F  F2436  1  0.35660000  0.18260000  0.02770000  1.0
  F  F2437  1  0.38830000  0.16330000  0.06580000  1.0
  F  F2438  1  0.33900000  0.08410000  0.06750000  1.0
  F  F2439  1  0.30900000  0.10400000  0.02580000  1.0
  F  F2440  1  0.27970000  0.14280000  0.04590000  1.0
  F  F2441  1  0.22630000  0.13100000  0.04510000  1.0
  F  F2442  1  0.30770000  0.19150000  0.04610000  1.0
  F  F2443  1  0.75460000  0.04530000  0.29370000  1.0
  F  F2444  1  0.64340000  0.18260000  0.97230000  1.0
  F  F2445  1  0.61170000  0.16330000  0.93420000  1.0
  F  F2446  1  0.66100000  0.08410000  0.93250000  1.0
  F  F2447  1  0.69100000  0.10400000  0.97420000  1.0
  F  F2448  1  0.72030000  0.14280000  0.95410000  1.0
  F  F2449  1  0.77370000  0.13100000  0.95490000  1.0
  F  F2450  1  0.69230000  0.19150000  0.95390000  1.0
  F  F2451  1  0.24540000  0.04530000  0.70630000  1.0
  F  F2452  1  0.85660000  0.47230000  0.68260000  1.0
  F  F2453  1  0.88830000  0.43420000  0.66330000  1.0
  F  F2454  1  0.83900000  0.43250000  0.58410000  1.0
  F  F2455  1  0.80900000  0.47420000  0.60400000  1.0
  F  F2456  1  0.77970000  0.45410000  0.64280000  1.0
  F  F2457  1  0.72630000  0.45490000  0.63100000  1.0
  F  F2458  1  0.80770000  0.45390000  0.69150000  1.0
  F  F2459  1  0.25460000  0.20630000  0.54530000  1.0
  F  F2460  1  0.14340000  0.52770000  0.68260000  1.0
  F  F2461  1  0.11170000  0.56580000  0.66330000  1.0
  F  F2462  1  0.16100000  0.56750000  0.58410000  1.0
  F  F2463  1  0.19100000  0.52580000  0.60400000  1.0
  F  F2464  1  0.22030000  0.54590000  0.64280000  1.0
  F  F2465  1  0.27370000  0.54510000  0.63100000  1.0
  F  F2466  1  0.19230000  0.54610000  0.69150000  1.0
  F  F2467  1  0.74540000  0.79370000  0.54530000  1.0
  F  F2468  1  0.85660000  0.52770000  0.31740000  1.0
  F  F2469  1  0.88830000  0.56580000  0.33670000  1.0
  F  F2470  1  0.83900000  0.56750000  0.41590000  1.0
  F  F2471  1  0.80900000  0.52580000  0.39600000  1.0
  F  F2472  1  0.77970000  0.54590000  0.35720000  1.0
  F  F2473  1  0.72630000  0.54510000  0.36900000  1.0
  F  F2474  1  0.80770000  0.54610000  0.30850000  1.0
  F  F2475  1  0.25460000  0.79370000  0.45470000  1.0
  F  F2476  1  0.14340000  0.47230000  0.31740000  1.0
  F  F2477  1  0.11170000  0.43420000  0.33670000  1.0
  F  F2478  1  0.16100000  0.43250000  0.41590000  1.0
  F  F2479  1  0.19100000  0.47420000  0.39600000  1.0
  F  F2480  1  0.22030000  0.45410000  0.35720000  1.0
  F  F2481  1  0.27370000  0.45490000  0.36900000  1.0
  F  F2482  1  0.19230000  0.45390000  0.30850000  1.0
  F  F2483  1  0.74540000  0.20630000  0.45470000  1.0
  F  F2484  1  0.47230000  0.31740000  0.14340000  1.0
  F  F2485  1  0.43420000  0.33670000  0.11170000  1.0
  F  F2486  1  0.43250000  0.41590000  0.16100000  1.0
  F  F2487  1  0.47420000  0.39600000  0.19100000  1.0
  F  F2488  1  0.45410000  0.35720000  0.22030000  1.0
  F  F2489  1  0.45490000  0.36900000  0.27370000  1.0
  F  F2490  1  0.45390000  0.30850000  0.19230000  1.0
  F  F2491  1  0.20630000  0.45470000  0.74540000  1.0
  F  F2492  1  0.52770000  0.31740000  0.85660000  1.0
  F  F2493  1  0.56580000  0.33670000  0.88830000  1.0
  F  F2494  1  0.56750000  0.41590000  0.83900000  1.0
  F  F2495  1  0.52580000  0.39600000  0.80900000  1.0
  F  F2496  1  0.54590000  0.35720000  0.77970000  1.0
  F  F2497  1  0.54510000  0.36900000  0.72630000  1.0
  F  F2498  1  0.54610000  0.30850000  0.80770000  1.0
  F  F2499  1  0.79370000  0.45470000  0.25460000  1.0
  F  F2500  1  0.52770000  0.68260000  0.14340000  1.0
  F  F2501  1  0.56580000  0.66330000  0.11170000  1.0
  F  F2502  1  0.56750000  0.58410000  0.16100000  1.0
  F  F2503  1  0.52580000  0.60400000  0.19100000  1.0
  F  F2504  1  0.54590000  0.64280000  0.22030000  1.0
  F  F2505  1  0.54510000  0.63100000  0.27370000  1.0
  F  F2506  1  0.54610000  0.69150000  0.19230000  1.0
  F  F2507  1  0.79370000  0.54530000  0.74540000  1.0
  F  F2508  1  0.47230000  0.68260000  0.85660000  1.0
  F  F2509  1  0.43420000  0.66330000  0.88830000  1.0
  F  F2510  1  0.43250000  0.58410000  0.83900000  1.0
  F  F2511  1  0.47420000  0.60400000  0.80900000  1.0
  F  F2512  1  0.45410000  0.64280000  0.77970000  1.0
  F  F2513  1  0.45490000  0.63100000  0.72630000  1.0
  F  F2514  1  0.45390000  0.69150000  0.80770000  1.0
  F  F2515  1  0.20630000  0.54530000  0.25460000  1.0
  F  F2516  1  0.31740000  0.85660000  0.52770000  1.0
  F  F2517  1  0.33670000  0.88830000  0.56580000  1.0
  F  F2518  1  0.41590000  0.83900000  0.56750000  1.0
  F  F2519  1  0.39600000  0.80900000  0.52580000  1.0
  F  F2520  1  0.35720000  0.77970000  0.54590000  1.0
  F  F2521  1  0.36900000  0.72630000  0.54510000  1.0
  F  F2522  1  0.30850000  0.80770000  0.54610000  1.0
  F  F2523  1  0.45470000  0.25460000  0.79370000  1.0
  F  F2524  1  0.31740000  0.14340000  0.47230000  1.0
  F  F2525  1  0.33670000  0.11170000  0.43420000  1.0
  F  F2526  1  0.41590000  0.16100000  0.43250000  1.0
  F  F2527  1  0.39600000  0.19100000  0.47420000  1.0
  F  F2528  1  0.35720000  0.22030000  0.45410000  1.0
  F  F2529  1  0.36900000  0.27370000  0.45490000  1.0
  F  F2530  1  0.30850000  0.19230000  0.45390000  1.0
  F  F2531  1  0.45470000  0.74540000  0.20630000  1.0
  F  F2532  1  0.68260000  0.85660000  0.47230000  1.0
  F  F2533  1  0.66330000  0.88830000  0.43420000  1.0
  F  F2534  1  0.58410000  0.83900000  0.43250000  1.0
  F  F2535  1  0.60400000  0.80900000  0.47420000  1.0
  F  F2536  1  0.64280000  0.77970000  0.45410000  1.0
  F  F2537  1  0.63100000  0.72630000  0.45490000  1.0
  F  F2538  1  0.69150000  0.80770000  0.45390000  1.0
  F  F2539  1  0.54530000  0.25460000  0.20630000  1.0
  F  F2540  1  0.68260000  0.14340000  0.52770000  1.0
  F  F2541  1  0.66330000  0.11170000  0.56580000  1.0
  F  F2542  1  0.58410000  0.16100000  0.56750000  1.0
  F  F2543  1  0.60400000  0.19100000  0.52580000  1.0
  F  F2544  1  0.64280000  0.22030000  0.54590000  1.0
  F  F2545  1  0.63100000  0.27370000  0.54510000  1.0
  F  F2546  1  0.69150000  0.19230000  0.54610000  1.0
  F  F2547  1  0.54530000  0.74540000  0.79370000  1.0
