# generated using pymatgen
data_AgH4C6NO2
_symmetry_space_group_name_H-M   'P 1'
_cell_length_a   14.28850000
_cell_length_b   23.82300000
_cell_length_c   30.74900000
_cell_angle_alpha   90.00000000
_cell_angle_beta   90.00000000
_cell_angle_gamma   90.00000000
_symmetry_Int_Tables_number   1
_chemical_formula_structural   AgH4C6NO2
_chemical_formula_sum   'Ag64 H256 C384 N64 O128'
_cell_volume   10466.80387169
_cell_formula_units_Z   64
loop_
 _symmetry_equiv_pos_site_id
 _symmetry_equiv_pos_as_xyz
  1  'x, y, z'
loop_
 _atom_site_type_symbol
 _atom_site_label
 _atom_site_symmetry_multiplicity
 _atom_site_fract_x
 _atom_site_fract_y
 _atom_site_fract_z
 _atom_site_occupancy
  Ag  Ag0  1  0.35092000  0.76665000  0.71115000  1.0
  Ag  Ag1  1  0.20101000  0.93497000  0.51922000  1.0
  Ag  Ag2  1  0.41204000  0.72252000  0.78948000  1.0
  Ag  Ag3  1  0.52144000  0.55562000  0.98551000  1.0
  Ag  Ag4  1  0.49982000  0.56029000  0.47178000  1.0
  Ag  Ag5  1  0.61053000  0.73856000  0.28382000  1.0
  Ag  Ag6  1  0.65792000  0.77684000  0.20077000  1.0
  Ag  Ag7  1  0.75148000  0.95075000  0.00700000  1.0
  Ag  Ag8  1  0.14908000  0.73335000  0.71115000  1.0
  Ag  Ag9  1  0.29899000  0.56503000  0.51922000  1.0
  Ag  Ag10  1  0.08796000  0.77748000  0.78948000  1.0
  Ag  Ag11  1  0.97856000  0.94438000  0.98551000  1.0
  Ag  Ag12  1  0.00018000  0.93971000  0.47178000  1.0
  Ag  Ag13  1  0.88947000  0.76144000  0.28382000  1.0
  Ag  Ag14  1  0.84208000  0.72316000  0.20077000  1.0
  Ag  Ag15  1  0.74852000  0.54925000  0.00700000  1.0
  Ag  Ag16  1  0.64908000  0.26665000  0.78885000  1.0
  Ag  Ag17  1  0.79899000  0.43497000  0.98078000  1.0
  Ag  Ag18  1  0.58796000  0.22252000  0.71052000  1.0
  Ag  Ag19  1  0.47856000  0.05562000  0.51449000  1.0
  Ag  Ag20  1  0.50018000  0.06029000  0.02822000  1.0
  Ag  Ag21  1  0.38947000  0.23856000  0.21618000  1.0
  Ag  Ag22  1  0.34208000  0.27684000  0.29923000  1.0
  Ag  Ag23  1  0.24852000  0.45075000  0.49300000  1.0
  Ag  Ag24  1  0.85092000  0.23335000  0.78885000  1.0
  Ag  Ag25  1  0.70101000  0.06503000  0.98078000  1.0
  Ag  Ag26  1  0.91204000  0.27748000  0.71052000  1.0
  Ag  Ag27  1  0.02144000  0.44438000  0.51449000  1.0
  Ag  Ag28  1  0.99982000  0.43971000  0.02822000  1.0
  Ag  Ag29  1  0.11053000  0.26144000  0.21618000  1.0
  Ag  Ag30  1  0.15792000  0.22316000  0.29923000  1.0
  Ag  Ag31  1  0.25148000  0.04925000  0.49300000  1.0
  Ag  Ag32  1  0.64908000  0.23335000  0.28885000  1.0
  Ag  Ag33  1  0.79899000  0.06503000  0.48078000  1.0
  Ag  Ag34  1  0.58796000  0.27748000  0.21052000  1.0
  Ag  Ag35  1  0.47856000  0.44438000  0.01449000  1.0
  Ag  Ag36  1  0.50018000  0.43971000  0.52822000  1.0
  Ag  Ag37  1  0.38947000  0.26144000  0.71618000  1.0
  Ag  Ag38  1  0.34208000  0.22316000  0.79923000  1.0
  Ag  Ag39  1  0.24852000  0.04925000  0.99300000  1.0
  Ag  Ag40  1  0.85092000  0.26665000  0.28885000  1.0
  Ag  Ag41  1  0.70101000  0.43497000  0.48078000  1.0
  Ag  Ag42  1  0.91204000  0.22252000  0.21052000  1.0
  Ag  Ag43  1  0.02144000  0.05562000  0.01449000  1.0
  Ag  Ag44  1  0.99982000  0.06029000  0.52822000  1.0
  Ag  Ag45  1  0.11053000  0.23856000  0.71618000  1.0
  Ag  Ag46  1  0.15792000  0.27684000  0.79923000  1.0
  Ag  Ag47  1  0.25148000  0.45075000  0.99300000  1.0
  Ag  Ag48  1  0.35092000  0.73335000  0.21115000  1.0
  Ag  Ag49  1  0.20101000  0.56503000  0.01922000  1.0
  Ag  Ag50  1  0.41204000  0.77748000  0.28948000  1.0
  Ag  Ag51  1  0.52144000  0.94438000  0.48551000  1.0
  Ag  Ag52  1  0.49982000  0.93971000  0.97178000  1.0
  Ag  Ag53  1  0.61053000  0.76144000  0.78382000  1.0
  Ag  Ag54  1  0.65792000  0.72316000  0.70077000  1.0
  Ag  Ag55  1  0.75148000  0.54925000  0.50700000  1.0
  Ag  Ag56  1  0.14908000  0.76665000  0.21115000  1.0
  Ag  Ag57  1  0.29899000  0.93497000  0.01922000  1.0
  Ag  Ag58  1  0.08796000  0.72252000  0.28948000  1.0
  Ag  Ag59  1  0.97856000  0.55562000  0.48551000  1.0
  Ag  Ag60  1  0.00018000  0.56029000  0.97178000  1.0
  Ag  Ag61  1  0.88947000  0.73856000  0.78382000  1.0
  Ag  Ag62  1  0.84208000  0.77684000  0.70077000  1.0
  Ag  Ag63  1  0.74852000  0.95075000  0.50700000  1.0
  H  H64  1  0.37100000  0.76370000  0.60080000  1.0
  H  H65  1  0.32810000  0.81450000  0.54090000  1.0
  H  H66  1  0.19450000  0.92050000  0.61570000  1.0
  H  H67  1  0.23440000  0.86920000  0.67640000  1.0
  H  H68  1  0.37560000  0.72980000  0.89770000  1.0
  H  H69  1  0.41480000  0.68240000  0.95980000  1.0
  H  H70  1  0.58580000  0.58500000  0.89460000  1.0
  H  H71  1  0.53500000  0.62600000  0.83020000  1.0
  H  H72  1  0.49630000  0.63610000  0.31690000  1.0
  H  H73  1  0.45830000  0.58010000  0.37540000  1.0
  H  H74  1  0.58110000  0.68620000  0.45400000  1.0
  H  H75  1  0.63030000  0.73790000  0.39360000  1.0
  H  H76  1  0.17670000  0.90830000  0.76300000  1.0
  H  H77  1  0.09720000  0.98200000  0.79770000  1.0
  H  H78  1  0.11960000  0.99540000  0.87340000  1.0
  H  H79  1  0.29780000  0.86250000  0.87630000  1.0
  H  H80  1  0.58070000  0.57100000  0.73120000  1.0
  H  H81  1  0.65230000  0.50320000  0.68840000  1.0
  H  H82  1  0.63580000  0.50210000  0.61480000  1.0
  H  H83  1  0.46930000  0.63860000  0.62080000  1.0
  H  H84  1  0.78370000  0.87460000  0.16170000  1.0
  H  H85  1  0.80910000  0.92540000  0.09920000  1.0
  H  H86  1  0.66030000  0.81910000  0.03030000  1.0
  H  H87  1  0.63790000  0.76650000  0.09150000  1.0
  H  H88  1  0.44120000  0.58560000  0.24490000  1.0
  H  H89  1  0.35750000  0.51310000  0.21210000  1.0
  H  H90  1  0.36650000  0.49750000  0.13880000  1.0
  H  H91  1  0.53210000  0.63340000  0.12490000  1.0
  H  H92  1  0.82510000  0.92730000  0.24750000  1.0
  H  H93  1  0.90600000  0.00260000  0.28240000  1.0
  H  H94  1  0.89210000  0.01400000  0.35590000  1.0
  H  H95  1  0.72780000  0.87550000  0.36290000  1.0
  H  H96  1  0.12900000  0.73630000  0.60080000  1.0
  H  H97  1  0.17190000  0.68550000  0.54090000  1.0
  H  H98  1  0.30550000  0.57950000  0.61570000  1.0
  H  H99  1  0.26560000  0.63080000  0.67640000  1.0
  H  H100  1  0.12440000  0.77020000  0.89770000  1.0
  H  H101  1  0.08520000  0.81760000  0.95980000  1.0
  H  H102  1  0.91420000  0.91500000  0.89460000  1.0
  H  H103  1  0.96500000  0.87400000  0.83020000  1.0
  H  H104  1  0.00370000  0.86390000  0.31690000  1.0
  H  H105  1  0.04170000  0.91990000  0.37540000  1.0
  H  H106  1  0.91890000  0.81380000  0.45400000  1.0
  H  H107  1  0.86970000  0.76210000  0.39360000  1.0
  H  H108  1  0.32330000  0.59170000  0.76300000  1.0
  H  H109  1  0.40280000  0.51800000  0.79770000  1.0
  H  H110  1  0.38040000  0.50460000  0.87340000  1.0
  H  H111  1  0.20220000  0.63750000  0.87630000  1.0
  H  H112  1  0.91930000  0.92900000  0.73120000  1.0
  H  H113  1  0.84770000  0.99680000  0.68840000  1.0
  H  H114  1  0.86420000  0.99790000  0.61480000  1.0
  H  H115  1  0.03070000  0.86140000  0.62080000  1.0
  H  H116  1  0.71630000  0.62540000  0.16170000  1.0
  H  H117  1  0.69090000  0.57460000  0.09920000  1.0
  H  H118  1  0.83970000  0.68090000  0.03030000  1.0
  H  H119  1  0.86210000  0.73350000  0.09150000  1.0
  H  H120  1  0.05880000  0.91440000  0.24490000  1.0
  H  H121  1  0.14250000  0.98690000  0.21210000  1.0
  H  H122  1  0.13350000  0.00250000  0.13880000  1.0
  H  H123  1  0.96790000  0.86660000  0.12490000  1.0
  H  H124  1  0.67490000  0.57270000  0.24750000  1.0
  H  H125  1  0.59400000  0.49740000  0.28240000  1.0
  H  H126  1  0.60790000  0.48600000  0.35590000  1.0
  H  H127  1  0.77220000  0.62450000  0.36290000  1.0
  H  H128  1  0.62900000  0.26370000  0.89920000  1.0
  H  H129  1  0.67190000  0.31450000  0.95910000  1.0
  H  H130  1  0.80550000  0.42050000  0.88430000  1.0
  H  H131  1  0.76560000  0.36920000  0.82360000  1.0
  H  H132  1  0.62440000  0.22980000  0.60230000  1.0
  H  H133  1  0.58520000  0.18240000  0.54020000  1.0
  H  H134  1  0.41420000  0.08500000  0.60540000  1.0
  H  H135  1  0.46500000  0.12600000  0.66980000  1.0
  H  H136  1  0.50370000  0.13610000  0.18310000  1.0
  H  H137  1  0.54170000  0.08010000  0.12460000  1.0
  H  H138  1  0.41890000  0.18620000  0.04600000  1.0
  H  H139  1  0.36970000  0.23790000  0.10640000  1.0
  H  H140  1  0.82330000  0.40830000  0.73700000  1.0
  H  H141  1  0.90280000  0.48200000  0.70230000  1.0
  H  H142  1  0.88040000  0.49540000  0.62660000  1.0
  H  H143  1  0.70220000  0.36250000  0.62370000  1.0
  H  H144  1  0.41930000  0.07100000  0.76880000  1.0
  H  H145  1  0.34770000  0.00320000  0.81160000  1.0
  H  H146  1  0.36420000  0.00210000  0.88520000  1.0
  H  H147  1  0.53070000  0.13860000  0.87920000  1.0
  H  H148  1  0.21630000  0.37460000  0.33830000  1.0
  H  H149  1  0.19090000  0.42540000  0.40080000  1.0
  H  H150  1  0.33970000  0.31910000  0.46970000  1.0
  H  H151  1  0.36210000  0.26650000  0.40850000  1.0
  H  H152  1  0.55880000  0.08560000  0.25510000  1.0
  H  H153  1  0.64250000  0.01310000  0.28790000  1.0
  H  H154  1  0.63350000  0.99750000  0.36120000  1.0
  H  H155  1  0.46790000  0.13340000  0.37510000  1.0
  H  H156  1  0.17490000  0.42730000  0.25250000  1.0
  H  H157  1  0.09400000  0.50260000  0.21760000  1.0
  H  H158  1  0.10790000  0.51400000  0.14410000  1.0
  H  H159  1  0.27220000  0.37550000  0.13710000  1.0
  H  H160  1  0.87100000  0.23630000  0.89920000  1.0
  H  H161  1  0.82810000  0.18550000  0.95910000  1.0
  H  H162  1  0.69450000  0.07950000  0.88430000  1.0
  H  H163  1  0.73440000  0.13080000  0.82360000  1.0
  H  H164  1  0.87560000  0.27020000  0.60230000  1.0
  H  H165  1  0.91480000  0.31760000  0.54020000  1.0
  H  H166  1  0.08580000  0.41500000  0.60540000  1.0
  H  H167  1  0.03500000  0.37400000  0.66980000  1.0
  H  H168  1  0.99630000  0.36390000  0.18310000  1.0
  H  H169  1  0.95830000  0.41990000  0.12460000  1.0
  H  H170  1  0.08110000  0.31380000  0.04600000  1.0
  H  H171  1  0.13030000  0.26210000  0.10640000  1.0
  H  H172  1  0.67670000  0.09170000  0.73700000  1.0
  H  H173  1  0.59720000  0.01800000  0.70230000  1.0
  H  H174  1  0.61960000  0.00460000  0.62660000  1.0
  H  H175  1  0.79780000  0.13750000  0.62370000  1.0
  H  H176  1  0.08070000  0.42900000  0.76880000  1.0
  H  H177  1  0.15230000  0.49680000  0.81160000  1.0
  H  H178  1  0.13580000  0.49790000  0.88520000  1.0
  H  H179  1  0.96930000  0.36140000  0.87920000  1.0
  H  H180  1  0.28370000  0.12540000  0.33830000  1.0
  H  H181  1  0.30910000  0.07460000  0.40080000  1.0
  H  H182  1  0.16030000  0.18090000  0.46970000  1.0
  H  H183  1  0.13790000  0.23350000  0.40850000  1.0
  H  H184  1  0.94120000  0.41440000  0.25510000  1.0
  H  H185  1  0.85750000  0.48690000  0.28790000  1.0
  H  H186  1  0.86650000  0.50250000  0.36120000  1.0
  H  H187  1  0.03210000  0.36660000  0.37510000  1.0
  H  H188  1  0.32510000  0.07270000  0.25250000  1.0
  H  H189  1  0.40600000  0.99740000  0.21760000  1.0
  H  H190  1  0.39210000  0.98600000  0.14410000  1.0
  H  H191  1  0.22780000  0.12450000  0.13710000  1.0
  H  H192  1  0.62900000  0.23630000  0.39920000  1.0
  H  H193  1  0.67190000  0.18550000  0.45910000  1.0
  H  H194  1  0.80550000  0.07950000  0.38430000  1.0
  H  H195  1  0.76560000  0.13080000  0.32360000  1.0
  H  H196  1  0.62440000  0.27020000  0.10230000  1.0
  H  H197  1  0.58520000  0.31760000  0.04020000  1.0
  H  H198  1  0.41420000  0.41500000  0.10540000  1.0
  H  H199  1  0.46500000  0.37400000  0.16980000  1.0
  H  H200  1  0.50370000  0.36390000  0.68310000  1.0
  H  H201  1  0.54170000  0.41990000  0.62460000  1.0
  H  H202  1  0.41890000  0.31380000  0.54600000  1.0
  H  H203  1  0.36970000  0.26210000  0.60640000  1.0
  H  H204  1  0.82330000  0.09170000  0.23700000  1.0
  H  H205  1  0.90280000  0.01800000  0.20230000  1.0
  H  H206  1  0.88040000  0.00460000  0.12660000  1.0
  H  H207  1  0.70220000  0.13750000  0.12370000  1.0
  H  H208  1  0.41930000  0.42900000  0.26880000  1.0
  H  H209  1  0.34770000  0.49680000  0.31160000  1.0
  H  H210  1  0.36420000  0.49790000  0.38520000  1.0
  H  H211  1  0.53070000  0.36140000  0.37920000  1.0
  H  H212  1  0.21630000  0.12540000  0.83830000  1.0
  H  H213  1  0.19090000  0.07460000  0.90080000  1.0
  H  H214  1  0.33970000  0.18090000  0.96970000  1.0
  H  H215  1  0.36210000  0.23350000  0.90850000  1.0
  H  H216  1  0.55880000  0.41440000  0.75510000  1.0
  H  H217  1  0.64250000  0.48690000  0.78790000  1.0
  H  H218  1  0.63350000  0.50250000  0.86120000  1.0
  H  H219  1  0.46790000  0.36660000  0.87510000  1.0
  H  H220  1  0.17490000  0.07270000  0.75250000  1.0
  H  H221  1  0.09400000  0.99740000  0.71760000  1.0
  H  H222  1  0.10790000  0.98600000  0.64410000  1.0
  H  H223  1  0.27220000  0.12450000  0.63710000  1.0
  H  H224  1  0.87100000  0.26370000  0.39920000  1.0
  H  H225  1  0.82810000  0.31450000  0.45910000  1.0
  H  H226  1  0.69450000  0.42050000  0.38430000  1.0
  H  H227  1  0.73440000  0.36920000  0.32360000  1.0
  H  H228  1  0.87560000  0.22980000  0.10230000  1.0
  H  H229  1  0.91480000  0.18240000  0.04020000  1.0
  H  H230  1  0.08580000  0.08500000  0.10540000  1.0
  H  H231  1  0.03500000  0.12600000  0.16980000  1.0
  H  H232  1  0.99630000  0.13610000  0.68310000  1.0
  H  H233  1  0.95830000  0.08010000  0.62460000  1.0
  H  H234  1  0.08110000  0.18620000  0.54600000  1.0
  H  H235  1  0.13030000  0.23790000  0.60640000  1.0
  H  H236  1  0.67670000  0.40830000  0.23700000  1.0
  H  H237  1  0.59720000  0.48200000  0.20230000  1.0
  H  H238  1  0.61960000  0.49540000  0.12660000  1.0
  H  H239  1  0.79780000  0.36250000  0.12370000  1.0
  H  H240  1  0.08070000  0.07100000  0.26880000  1.0
  H  H241  1  0.15230000  0.00320000  0.31160000  1.0
  H  H242  1  0.13580000  0.00210000  0.38520000  1.0
  H  H243  1  0.96930000  0.13860000  0.37920000  1.0
  H  H244  1  0.28370000  0.37460000  0.83830000  1.0
  H  H245  1  0.30910000  0.42540000  0.90080000  1.0
  H  H246  1  0.16030000  0.31910000  0.96970000  1.0
  H  H247  1  0.13790000  0.26650000  0.90850000  1.0
  H  H248  1  0.94120000  0.08560000  0.75510000  1.0
  H  H249  1  0.85750000  0.01310000  0.78790000  1.0
  H  H250  1  0.86650000  0.99750000  0.86120000  1.0
  H  H251  1  0.03210000  0.13340000  0.87510000  1.0
  H  H252  1  0.32510000  0.42730000  0.75250000  1.0
  H  H253  1  0.40600000  0.50260000  0.71760000  1.0
  H  H254  1  0.39210000  0.51400000  0.64410000  1.0
  H  H255  1  0.22780000  0.37550000  0.63710000  1.0
  H  H256  1  0.37100000  0.73630000  0.10080000  1.0
  H  H257  1  0.32810000  0.68550000  0.04090000  1.0
  H  H258  1  0.19450000  0.57950000  0.11570000  1.0
  H  H259  1  0.23440000  0.63080000  0.17640000  1.0
  H  H260  1  0.37560000  0.77020000  0.39770000  1.0
  H  H261  1  0.41480000  0.81760000  0.45980000  1.0
  H  H262  1  0.58580000  0.91500000  0.39460000  1.0
  H  H263  1  0.53500000  0.87400000  0.33020000  1.0
  H  H264  1  0.49630000  0.86390000  0.81690000  1.0
  H  H265  1  0.45830000  0.91990000  0.87540000  1.0
  H  H266  1  0.58110000  0.81380000  0.95400000  1.0
  H  H267  1  0.63030000  0.76210000  0.89360000  1.0
  H  H268  1  0.17670000  0.59170000  0.26300000  1.0
  H  H269  1  0.09720000  0.51800000  0.29770000  1.0
  H  H270  1  0.11960000  0.50460000  0.37340000  1.0
  H  H271  1  0.29780000  0.63750000  0.37630000  1.0
  H  H272  1  0.58070000  0.92900000  0.23120000  1.0
  H  H273  1  0.65230000  0.99680000  0.18840000  1.0
  H  H274  1  0.63580000  0.99790000  0.11480000  1.0
  H  H275  1  0.46930000  0.86140000  0.12080000  1.0
  H  H276  1  0.78370000  0.62540000  0.66170000  1.0
  H  H277  1  0.80910000  0.57460000  0.59920000  1.0
  H  H278  1  0.66030000  0.68090000  0.53030000  1.0
  H  H279  1  0.63790000  0.73350000  0.59150000  1.0
  H  H280  1  0.44120000  0.91440000  0.74490000  1.0
  H  H281  1  0.35750000  0.98690000  0.71210000  1.0
  H  H282  1  0.36650000  0.00250000  0.63880000  1.0
  H  H283  1  0.53210000  0.86660000  0.62490000  1.0
  H  H284  1  0.82510000  0.57270000  0.74750000  1.0
  H  H285  1  0.90600000  0.49740000  0.78240000  1.0
  H  H286  1  0.89210000  0.48600000  0.85590000  1.0
  H  H287  1  0.72780000  0.62450000  0.86290000  1.0
  H  H288  1  0.12900000  0.76370000  0.10080000  1.0
  H  H289  1  0.17190000  0.81450000  0.04090000  1.0
  H  H290  1  0.30550000  0.92050000  0.11570000  1.0
  H  H291  1  0.26560000  0.86920000  0.17640000  1.0
  H  H292  1  0.12440000  0.72980000  0.39770000  1.0
  H  H293  1  0.08520000  0.68240000  0.45980000  1.0
  H  H294  1  0.91420000  0.58500000  0.39460000  1.0
  H  H295  1  0.96500000  0.62600000  0.33020000  1.0
  H  H296  1  0.00370000  0.63610000  0.81690000  1.0
  H  H297  1  0.04170000  0.58010000  0.87540000  1.0
  H  H298  1  0.91890000  0.68620000  0.95400000  1.0
  H  H299  1  0.86970000  0.73790000  0.89360000  1.0
  H  H300  1  0.32330000  0.90830000  0.26300000  1.0
  H  H301  1  0.40280000  0.98200000  0.29770000  1.0
  H  H302  1  0.38040000  0.99540000  0.37340000  1.0
  H  H303  1  0.20220000  0.86250000  0.37630000  1.0
  H  H304  1  0.91930000  0.57100000  0.23120000  1.0
  H  H305  1  0.84770000  0.50320000  0.18840000  1.0
  H  H306  1  0.86420000  0.50210000  0.11480000  1.0
  H  H307  1  0.03070000  0.63860000  0.12080000  1.0
  H  H308  1  0.71630000  0.87460000  0.66170000  1.0
  H  H309  1  0.69090000  0.92540000  0.59920000  1.0
  H  H310  1  0.83970000  0.81910000  0.53030000  1.0
  H  H311  1  0.86210000  0.76650000  0.59150000  1.0
  H  H312  1  0.05880000  0.58560000  0.74490000  1.0
  H  H313  1  0.14250000  0.51310000  0.71210000  1.0
  H  H314  1  0.13350000  0.49750000  0.63880000  1.0
  H  H315  1  0.96790000  0.63340000  0.62490000  1.0
  H  H316  1  0.67490000  0.92730000  0.74750000  1.0
  H  H317  1  0.59400000  0.00260000  0.78240000  1.0
  H  H318  1  0.60790000  0.01400000  0.85590000  1.0
  H  H319  1  0.77220000  0.87550000  0.86290000  1.0
  C  C320  1  0.33420000  0.79640000  0.60490000  1.0
  C  C321  1  0.30840000  0.82690000  0.56880000  1.0
  C  C322  1  0.23130000  0.88760000  0.61210000  1.0
  C  C323  1  0.25540000  0.85760000  0.64850000  1.0
  C  C324  1  0.41740000  0.69890000  0.89600000  1.0
  C  C325  1  0.43990000  0.67010000  0.93290000  1.0
  C  C326  1  0.53780000  0.61260000  0.89500000  1.0
  C  C327  1  0.51130000  0.63970000  0.85700000  1.0
  C  C328  1  0.51590000  0.64730000  0.34510000  1.0
  C  C329  1  0.49260000  0.61370000  0.38030000  1.0
  C  C330  1  0.56460000  0.67410000  0.42560000  1.0
  C  C331  1  0.59120000  0.70610000  0.38940000  1.0
  C  C332  1  0.29070000  0.83010000  0.79320000  1.0
  C  C333  1  0.24160000  0.87940000  0.81670000  1.0
  C  C334  1  0.18440000  0.91410000  0.79330000  1.0
  C  C335  1  0.13760000  0.95790000  0.81370000  1.0
  C  C336  1  0.15160000  0.96580000  0.85890000  1.0
  C  C337  1  0.21040000  0.93170000  0.88230000  1.0
  C  C338  1  0.25710000  0.88680000  0.86080000  1.0
  C  C339  1  0.22680000  0.94170000  0.92990000  1.0
  C  C340  1  0.47160000  0.65920000  0.70580000  1.0
  C  C341  1  0.51350000  0.61360000  0.68030000  1.0
  C  C342  1  0.57180000  0.57110000  0.70060000  1.0
  C  C343  1  0.61440000  0.53100000  0.67480000  1.0
  C  C344  1  0.60420000  0.52960000  0.63160000  1.0
  C  C345  1  0.54650000  0.56920000  0.61150000  1.0
  C  C346  1  0.50510000  0.61080000  0.63540000  1.0
  C  C347  1  0.53190000  0.56540000  0.56390000  1.0
  C  C348  1  0.75710000  0.86270000  0.13500000  1.0
  C  C349  1  0.77310000  0.89190000  0.09720000  1.0
  C  C350  1  0.68760000  0.83070000  0.05690000  1.0
  C  C351  1  0.67210000  0.80060000  0.09390000  1.0
  C  C352  1  0.54200000  0.66930000  0.20640000  1.0
  C  C353  1  0.49290000  0.61860000  0.18700000  1.0
  C  C354  1  0.44220000  0.58090000  0.21420000  1.0
  C  C355  1  0.39460000  0.53730000  0.19470000  1.0
  C  C356  1  0.39940000  0.52820000  0.15130000  1.0
  C  C357  1  0.45250000  0.56350000  0.12480000  1.0
  C  C358  1  0.49740000  0.60870000  0.14300000  1.0
  C  C359  1  0.46120000  0.55110000  0.07670000  1.0
  C  C360  1  0.72410000  0.84560000  0.28030000  1.0
  C  C361  1  0.77350000  0.89560000  0.30290000  1.0
  C  C362  1  0.82220000  0.93190000  0.27820000  1.0
  C  C363  1  0.86930000  0.97710000  0.29890000  1.0
  C  C364  1  0.86130000  0.98340000  0.34220000  1.0
  C  C365  1  0.80950000  0.94660000  0.36770000  1.0
  C  C366  1  0.76420000  0.90140000  0.34670000  1.0
  C  C367  1  0.79980000  0.95550000  0.41550000  1.0
  C  C368  1  0.16580000  0.70360000  0.60490000  1.0
  C  C369  1  0.19160000  0.67310000  0.56880000  1.0
  C  C370  1  0.26870000  0.61240000  0.61210000  1.0
  C  C371  1  0.24460000  0.64240000  0.64850000  1.0
  C  C372  1  0.08260000  0.80110000  0.89600000  1.0
  C  C373  1  0.06010000  0.82990000  0.93290000  1.0
  C  C374  1  0.96220000  0.88740000  0.89500000  1.0
  C  C375  1  0.98870000  0.86030000  0.85700000  1.0
  C  C376  1  0.98410000  0.85270000  0.34510000  1.0
  C  C377  1  0.00740000  0.88630000  0.38030000  1.0
  C  C378  1  0.93540000  0.82590000  0.42560000  1.0
  C  C379  1  0.90880000  0.79390000  0.38940000  1.0
  C  C380  1  0.20930000  0.66990000  0.79320000  1.0
  C  C381  1  0.25840000  0.62060000  0.81670000  1.0
  C  C382  1  0.31560000  0.58590000  0.79330000  1.0
  C  C383  1  0.36240000  0.54210000  0.81370000  1.0
  C  C384  1  0.34840000  0.53420000  0.85890000  1.0
  C  C385  1  0.28960000  0.56830000  0.88230000  1.0
  C  C386  1  0.24290000  0.61320000  0.86080000  1.0
  C  C387  1  0.27320000  0.55830000  0.92990000  1.0
  C  C388  1  0.02840000  0.84080000  0.70580000  1.0
  C  C389  1  0.98650000  0.88640000  0.68030000  1.0
  C  C390  1  0.92820000  0.92890000  0.70060000  1.0
  C  C391  1  0.88560000  0.96900000  0.67480000  1.0
  C  C392  1  0.89580000  0.97040000  0.63160000  1.0
  C  C393  1  0.95350000  0.93080000  0.61150000  1.0
  C  C394  1  0.99490000  0.88920000  0.63540000  1.0
  C  C395  1  0.96810000  0.93460000  0.56390000  1.0
  C  C396  1  0.74290000  0.63730000  0.13500000  1.0
  C  C397  1  0.72690000  0.60810000  0.09720000  1.0
  C  C398  1  0.81240000  0.66930000  0.05690000  1.0
  C  C399  1  0.82790000  0.69940000  0.09390000  1.0
  C  C400  1  0.95800000  0.83070000  0.20640000  1.0
  C  C401  1  0.00710000  0.88140000  0.18700000  1.0
  C  C402  1  0.05780000  0.91910000  0.21420000  1.0
  C  C403  1  0.10540000  0.96270000  0.19470000  1.0
  C  C404  1  0.10060000  0.97180000  0.15130000  1.0
  C  C405  1  0.04750000  0.93650000  0.12480000  1.0
  C  C406  1  0.00260000  0.89130000  0.14300000  1.0
  C  C407  1  0.03880000  0.94890000  0.07670000  1.0
  C  C408  1  0.77590000  0.65440000  0.28030000  1.0
  C  C409  1  0.72650000  0.60440000  0.30290000  1.0
  C  C410  1  0.67780000  0.56810000  0.27820000  1.0
  C  C411  1  0.63070000  0.52290000  0.29890000  1.0
  C  C412  1  0.63870000  0.51660000  0.34220000  1.0
  C  C413  1  0.69050000  0.55340000  0.36770000  1.0
  C  C414  1  0.73580000  0.59860000  0.34670000  1.0
  C  C415  1  0.70020000  0.54450000  0.41550000  1.0
  C  C416  1  0.66580000  0.29640000  0.89510000  1.0
  C  C417  1  0.69160000  0.32690000  0.93120000  1.0
  C  C418  1  0.76870000  0.38760000  0.88790000  1.0
  C  C419  1  0.74460000  0.35760000  0.85150000  1.0
  C  C420  1  0.58260000  0.19890000  0.60400000  1.0
  C  C421  1  0.56010000  0.17010000  0.56710000  1.0
  C  C422  1  0.46220000  0.11260000  0.60500000  1.0
  C  C423  1  0.48870000  0.13970000  0.64300000  1.0
  C  C424  1  0.48410000  0.14730000  0.15490000  1.0
  C  C425  1  0.50740000  0.11370000  0.11970000  1.0
  C  C426  1  0.43540000  0.17410000  0.07440000  1.0
  C  C427  1  0.40880000  0.20610000  0.11060000  1.0
  C  C428  1  0.70930000  0.33010000  0.70680000  1.0
  C  C429  1  0.75840000  0.37940000  0.68330000  1.0
  C  C430  1  0.81560000  0.41410000  0.70670000  1.0
  C  C431  1  0.86240000  0.45790000  0.68630000  1.0
  C  C432  1  0.84840000  0.46580000  0.64110000  1.0
  C  C433  1  0.78960000  0.43170000  0.61770000  1.0
  C  C434  1  0.74290000  0.38680000  0.63920000  1.0
  C  C435  1  0.77320000  0.44170000  0.57010000  1.0
  C  C436  1  0.52840000  0.15920000  0.79420000  1.0
  C  C437  1  0.48650000  0.11360000  0.81970000  1.0
  C  C438  1  0.42820000  0.07110000  0.79940000  1.0
  C  C439  1  0.38560000  0.03100000  0.82520000  1.0
  C  C440  1  0.39580000  0.02960000  0.86840000  1.0
  C  C441  1  0.45350000  0.06920000  0.88850000  1.0
  C  C442  1  0.49490000  0.11080000  0.86460000  1.0
  C  C443  1  0.46810000  0.06540000  0.93610000  1.0
  C  C444  1  0.24290000  0.36270000  0.36500000  1.0
  C  C445  1  0.22690000  0.39190000  0.40280000  1.0
  C  C446  1  0.31240000  0.33070000  0.44310000  1.0
  C  C447  1  0.32790000  0.30060000  0.40610000  1.0
  C  C448  1  0.45800000  0.16930000  0.29360000  1.0
  C  C449  1  0.50710000  0.11860000  0.31300000  1.0
  C  C450  1  0.55780000  0.08090000  0.28580000  1.0
  C  C451  1  0.60540000  0.03730000  0.30530000  1.0
  C  C452  1  0.60060000  0.02820000  0.34870000  1.0
  C  C453  1  0.54750000  0.06350000  0.37520000  1.0
  C  C454  1  0.50260000  0.10870000  0.35700000  1.0
  C  C455  1  0.53880000  0.05110000  0.42330000  1.0
  C  C456  1  0.27590000  0.34560000  0.21970000  1.0
  C  C457  1  0.22650000  0.39560000  0.19710000  1.0
  C  C458  1  0.17780000  0.43190000  0.22180000  1.0
  C  C459  1  0.13070000  0.47710000  0.20110000  1.0
  C  C460  1  0.13870000  0.48340000  0.15780000  1.0
  C  C461  1  0.19050000  0.44660000  0.13230000  1.0
  C  C462  1  0.23580000  0.40140000  0.15330000  1.0
  C  C463  1  0.20020000  0.45550000  0.08450000  1.0
  C  C464  1  0.83420000  0.20360000  0.89510000  1.0
  C  C465  1  0.80840000  0.17310000  0.93120000  1.0
  C  C466  1  0.73130000  0.11240000  0.88790000  1.0
  C  C467  1  0.75540000  0.14240000  0.85150000  1.0
  C  C468  1  0.91740000  0.30110000  0.60400000  1.0
  C  C469  1  0.93990000  0.32990000  0.56710000  1.0
  C  C470  1  0.03780000  0.38740000  0.60500000  1.0
  C  C471  1  0.01130000  0.36030000  0.64300000  1.0
  C  C472  1  0.01590000  0.35270000  0.15490000  1.0
  C  C473  1  0.99260000  0.38630000  0.11970000  1.0
  C  C474  1  0.06460000  0.32590000  0.07440000  1.0
  C  C475  1  0.09120000  0.29390000  0.11060000  1.0
  C  C476  1  0.79070000  0.16990000  0.70680000  1.0
  C  C477  1  0.74160000  0.12060000  0.68330000  1.0
  C  C478  1  0.68440000  0.08590000  0.70670000  1.0
  C  C479  1  0.63760000  0.04210000  0.68630000  1.0
  C  C480  1  0.65160000  0.03420000  0.64110000  1.0
  C  C481  1  0.71040000  0.06830000  0.61770000  1.0
  C  C482  1  0.75710000  0.11320000  0.63920000  1.0
  C  C483  1  0.72680000  0.05830000  0.57010000  1.0
  C  C484  1  0.97160000  0.34080000  0.79420000  1.0
  C  C485  1  0.01350000  0.38640000  0.81970000  1.0
  C  C486  1  0.07180000  0.42890000  0.79940000  1.0
  C  C487  1  0.11440000  0.46900000  0.82520000  1.0
  C  C488  1  0.10420000  0.47040000  0.86840000  1.0
  C  C489  1  0.04650000  0.43080000  0.88850000  1.0
  C  C490  1  0.00510000  0.38920000  0.86460000  1.0
  C  C491  1  0.03190000  0.43460000  0.93610000  1.0
  C  C492  1  0.25710000  0.13730000  0.36500000  1.0
  C  C493  1  0.27310000  0.10810000  0.40280000  1.0
  C  C494  1  0.18760000  0.16930000  0.44310000  1.0
  C  C495  1  0.17210000  0.19940000  0.40610000  1.0
  C  C496  1  0.04200000  0.33070000  0.29360000  1.0
  C  C497  1  0.99290000  0.38140000  0.31300000  1.0
  C  C498  1  0.94220000  0.41910000  0.28580000  1.0
  C  C499  1  0.89460000  0.46270000  0.30530000  1.0
  C  C500  1  0.89940000  0.47180000  0.34870000  1.0
  C  C501  1  0.95250000  0.43650000  0.37520000  1.0
  C  C502  1  0.99740000  0.39130000  0.35700000  1.0
  C  C503  1  0.96120000  0.44890000  0.42330000  1.0
  C  C504  1  0.22410000  0.15440000  0.21970000  1.0
  C  C505  1  0.27350000  0.10440000  0.19710000  1.0
  C  C506  1  0.32220000  0.06810000  0.22180000  1.0
  C  C507  1  0.36930000  0.02290000  0.20110000  1.0
  C  C508  1  0.36130000  0.01660000  0.15780000  1.0
  C  C509  1  0.30950000  0.05340000  0.13230000  1.0
  C  C510  1  0.26420000  0.09860000  0.15330000  1.0
  C  C511  1  0.29980000  0.04450000  0.08450000  1.0
  C  C512  1  0.66580000  0.20360000  0.39510000  1.0
  C  C513  1  0.69160000  0.17310000  0.43120000  1.0
  C  C514  1  0.76870000  0.11240000  0.38790000  1.0
  C  C515  1  0.74460000  0.14240000  0.35150000  1.0
  C  C516  1  0.58260000  0.30110000  0.10400000  1.0
  C  C517  1  0.56010000  0.32990000  0.06710000  1.0
  C  C518  1  0.46220000  0.38740000  0.10500000  1.0
  C  C519  1  0.48870000  0.36030000  0.14300000  1.0
  C  C520  1  0.48410000  0.35270000  0.65490000  1.0
  C  C521  1  0.50740000  0.38630000  0.61970000  1.0
  C  C522  1  0.43540000  0.32590000  0.57440000  1.0
  C  C523  1  0.40880000  0.29390000  0.61060000  1.0
  C  C524  1  0.70930000  0.16990000  0.20680000  1.0
  C  C525  1  0.75840000  0.12060000  0.18330000  1.0
  C  C526  1  0.81560000  0.08590000  0.20670000  1.0
  C  C527  1  0.86240000  0.04210000  0.18630000  1.0
  C  C528  1  0.84840000  0.03420000  0.14110000  1.0
  C  C529  1  0.78960000  0.06830000  0.11770000  1.0
  C  C530  1  0.74290000  0.11320000  0.13920000  1.0
  C  C531  1  0.77320000  0.05830000  0.07010000  1.0
  C  C532  1  0.52840000  0.34080000  0.29420000  1.0
  C  C533  1  0.48650000  0.38640000  0.31970000  1.0
  C  C534  1  0.42820000  0.42890000  0.29940000  1.0
  C  C535  1  0.38560000  0.46900000  0.32520000  1.0
  C  C536  1  0.39580000  0.47040000  0.36840000  1.0
  C  C537  1  0.45350000  0.43080000  0.38850000  1.0
  C  C538  1  0.49490000  0.38920000  0.36460000  1.0
  C  C539  1  0.46810000  0.43460000  0.43610000  1.0
  C  C540  1  0.24290000  0.13730000  0.86500000  1.0
  C  C541  1  0.22690000  0.10810000  0.90280000  1.0
  C  C542  1  0.31240000  0.16930000  0.94310000  1.0
  C  C543  1  0.32790000  0.19940000  0.90610000  1.0
  C  C544  1  0.45800000  0.33070000  0.79360000  1.0
  C  C545  1  0.50710000  0.38140000  0.81300000  1.0
  C  C546  1  0.55780000  0.41910000  0.78580000  1.0
  C  C547  1  0.60540000  0.46270000  0.80530000  1.0
  C  C548  1  0.60060000  0.47180000  0.84870000  1.0
  C  C549  1  0.54750000  0.43650000  0.87520000  1.0
  C  C550  1  0.50260000  0.39130000  0.85700000  1.0
  C  C551  1  0.53880000  0.44890000  0.92330000  1.0
  C  C552  1  0.27590000  0.15440000  0.71970000  1.0
  C  C553  1  0.22650000  0.10440000  0.69710000  1.0
  C  C554  1  0.17780000  0.06810000  0.72180000  1.0
  C  C555  1  0.13070000  0.02290000  0.70110000  1.0
  C  C556  1  0.13870000  0.01660000  0.65780000  1.0
  C  C557  1  0.19050000  0.05340000  0.63230000  1.0
  C  C558  1  0.23580000  0.09860000  0.65330000  1.0
  C  C559  1  0.20020000  0.04450000  0.58450000  1.0
  C  C560  1  0.83420000  0.29640000  0.39510000  1.0
  C  C561  1  0.80840000  0.32690000  0.43120000  1.0
  C  C562  1  0.73130000  0.38760000  0.38790000  1.0
  C  C563  1  0.75540000  0.35760000  0.35150000  1.0
  C  C564  1  0.91740000  0.19890000  0.10400000  1.0
  C  C565  1  0.93990000  0.17010000  0.06710000  1.0
  C  C566  1  0.03780000  0.11260000  0.10500000  1.0
  C  C567  1  0.01130000  0.13970000  0.14300000  1.0
  C  C568  1  0.01590000  0.14730000  0.65490000  1.0
  C  C569  1  0.99260000  0.11370000  0.61970000  1.0
  C  C570  1  0.06460000  0.17410000  0.57440000  1.0
  C  C571  1  0.09120000  0.20610000  0.61060000  1.0
  C  C572  1  0.79070000  0.33010000  0.20680000  1.0
  C  C573  1  0.74160000  0.37940000  0.18330000  1.0
  C  C574  1  0.68440000  0.41410000  0.20670000  1.0
  C  C575  1  0.63760000  0.45790000  0.18630000  1.0
  C  C576  1  0.65160000  0.46580000  0.14110000  1.0
  C  C577  1  0.71040000  0.43170000  0.11770000  1.0
  C  C578  1  0.75710000  0.38680000  0.13920000  1.0
  C  C579  1  0.72680000  0.44170000  0.07010000  1.0
  C  C580  1  0.97160000  0.15920000  0.29420000  1.0
  C  C581  1  0.01350000  0.11360000  0.31970000  1.0
  C  C582  1  0.07180000  0.07110000  0.29940000  1.0
  C  C583  1  0.11440000  0.03100000  0.32520000  1.0
  C  C584  1  0.10420000  0.02960000  0.36840000  1.0
  C  C585  1  0.04650000  0.06920000  0.38850000  1.0
  C  C586  1  0.00510000  0.11080000  0.36460000  1.0
  C  C587  1  0.03190000  0.06540000  0.43610000  1.0
  C  C588  1  0.25710000  0.36270000  0.86500000  1.0
  C  C589  1  0.27310000  0.39190000  0.90280000  1.0
  C  C590  1  0.18760000  0.33070000  0.94310000  1.0
  C  C591  1  0.17210000  0.30060000  0.90610000  1.0
  C  C592  1  0.04200000  0.16930000  0.79360000  1.0
  C  C593  1  0.99290000  0.11860000  0.81300000  1.0
  C  C594  1  0.94220000  0.08090000  0.78580000  1.0
  C  C595  1  0.89460000  0.03730000  0.80530000  1.0
  C  C596  1  0.89940000  0.02820000  0.84870000  1.0
  C  C597  1  0.95250000  0.06350000  0.87520000  1.0
  C  C598  1  0.99740000  0.10870000  0.85700000  1.0
  C  C599  1  0.96120000  0.05110000  0.92330000  1.0
  C  C600  1  0.22410000  0.34560000  0.71970000  1.0
  C  C601  1  0.27350000  0.39560000  0.69710000  1.0
  C  C602  1  0.32220000  0.43190000  0.72180000  1.0
  C  C603  1  0.36930000  0.47710000  0.70110000  1.0
  C  C604  1  0.36130000  0.48340000  0.65780000  1.0
  C  C605  1  0.30950000  0.44660000  0.63230000  1.0
  C  C606  1  0.26420000  0.40140000  0.65330000  1.0
  C  C607  1  0.29980000  0.45550000  0.58450000  1.0
  C  C608  1  0.33420000  0.70360000  0.10490000  1.0
  C  C609  1  0.30840000  0.67310000  0.06880000  1.0
  C  C610  1  0.23130000  0.61240000  0.11210000  1.0
  C  C611  1  0.25540000  0.64240000  0.14850000  1.0
  C  C612  1  0.41740000  0.80110000  0.39600000  1.0
  C  C613  1  0.43990000  0.82990000  0.43290000  1.0
  C  C614  1  0.53780000  0.88740000  0.39500000  1.0
  C  C615  1  0.51130000  0.86030000  0.35700000  1.0
  C  C616  1  0.51590000  0.85270000  0.84510000  1.0
  C  C617  1  0.49260000  0.88630000  0.88030000  1.0
  C  C618  1  0.56460000  0.82590000  0.92560000  1.0
  C  C619  1  0.59120000  0.79390000  0.88940000  1.0
  C  C620  1  0.29070000  0.66990000  0.29320000  1.0
  C  C621  1  0.24160000  0.62060000  0.31670000  1.0
  C  C622  1  0.18440000  0.58590000  0.29330000  1.0
  C  C623  1  0.13760000  0.54210000  0.31370000  1.0
  C  C624  1  0.15160000  0.53420000  0.35890000  1.0
  C  C625  1  0.21040000  0.56830000  0.38230000  1.0
  C  C626  1  0.25710000  0.61320000  0.36080000  1.0
  C  C627  1  0.22680000  0.55830000  0.42990000  1.0
  C  C628  1  0.47160000  0.84080000  0.20580000  1.0
  C  C629  1  0.51350000  0.88640000  0.18030000  1.0
  C  C630  1  0.57180000  0.92890000  0.20060000  1.0
  C  C631  1  0.61440000  0.96900000  0.17480000  1.0
  C  C632  1  0.60420000  0.97040000  0.13160000  1.0
  C  C633  1  0.54650000  0.93080000  0.11150000  1.0
  C  C634  1  0.50510000  0.88920000  0.13540000  1.0
  C  C635  1  0.53190000  0.93460000  0.06390000  1.0
  C  C636  1  0.75710000  0.63730000  0.63500000  1.0
  C  C637  1  0.77310000  0.60810000  0.59720000  1.0
  C  C638  1  0.68760000  0.66930000  0.55690000  1.0
  C  C639  1  0.67210000  0.69940000  0.59390000  1.0
  C  C640  1  0.54200000  0.83070000  0.70640000  1.0
  C  C641  1  0.49290000  0.88140000  0.68700000  1.0
  C  C642  1  0.44220000  0.91910000  0.71420000  1.0
  C  C643  1  0.39460000  0.96270000  0.69470000  1.0
  C  C644  1  0.39940000  0.97180000  0.65130000  1.0
  C  C645  1  0.45250000  0.93650000  0.62480000  1.0
  C  C646  1  0.49740000  0.89130000  0.64300000  1.0
  C  C647  1  0.46120000  0.94890000  0.57670000  1.0
  C  C648  1  0.72410000  0.65440000  0.78030000  1.0
  C  C649  1  0.77350000  0.60440000  0.80290000  1.0
  C  C650  1  0.82220000  0.56810000  0.77820000  1.0
  C  C651  1  0.86930000  0.52290000  0.79890000  1.0
  C  C652  1  0.86130000  0.51660000  0.84220000  1.0
  C  C653  1  0.80950000  0.55340000  0.86770000  1.0
  C  C654  1  0.76420000  0.59860000  0.84670000  1.0
  C  C655  1  0.79980000  0.54450000  0.91550000  1.0
  C  C656  1  0.16580000  0.79640000  0.10490000  1.0
  C  C657  1  0.19160000  0.82690000  0.06880000  1.0
  C  C658  1  0.26870000  0.88760000  0.11210000  1.0
  C  C659  1  0.24460000  0.85760000  0.14850000  1.0
  C  C660  1  0.08260000  0.69890000  0.39600000  1.0
  C  C661  1  0.06010000  0.67010000  0.43290000  1.0
  C  C662  1  0.96220000  0.61260000  0.39500000  1.0
  C  C663  1  0.98870000  0.63970000  0.35700000  1.0
  C  C664  1  0.98410000  0.64730000  0.84510000  1.0
  C  C665  1  0.00740000  0.61370000  0.88030000  1.0
  C  C666  1  0.93540000  0.67410000  0.92560000  1.0
  C  C667  1  0.90880000  0.70610000  0.88940000  1.0
  C  C668  1  0.20930000  0.83010000  0.29320000  1.0
  C  C669  1  0.25840000  0.87940000  0.31670000  1.0
  C  C670  1  0.31560000  0.91410000  0.29330000  1.0
  C  C671  1  0.36240000  0.95790000  0.31370000  1.0
  C  C672  1  0.34840000  0.96580000  0.35890000  1.0
  C  C673  1  0.28960000  0.93170000  0.38230000  1.0
  C  C674  1  0.24290000  0.88680000  0.36080000  1.0
  C  C675  1  0.27320000  0.94170000  0.42990000  1.0
  C  C676  1  0.02840000  0.65920000  0.20580000  1.0
  C  C677  1  0.98650000  0.61360000  0.18030000  1.0
  C  C678  1  0.92820000  0.57110000  0.20060000  1.0
  C  C679  1  0.88560000  0.53100000  0.17480000  1.0
  C  C680  1  0.89580000  0.52960000  0.13160000  1.0
  C  C681  1  0.95350000  0.56920000  0.11150000  1.0
  C  C682  1  0.99490000  0.61080000  0.13540000  1.0
  C  C683  1  0.96810000  0.56540000  0.06390000  1.0
  C  C684  1  0.74290000  0.86270000  0.63500000  1.0
  C  C685  1  0.72690000  0.89190000  0.59720000  1.0
  C  C686  1  0.81240000  0.83070000  0.55690000  1.0
  C  C687  1  0.82790000  0.80060000  0.59390000  1.0
  C  C688  1  0.95800000  0.66930000  0.70640000  1.0
  C  C689  1  0.00710000  0.61860000  0.68700000  1.0
  C  C690  1  0.05780000  0.58090000  0.71420000  1.0
  C  C691  1  0.10540000  0.53730000  0.69470000  1.0
  C  C692  1  0.10060000  0.52820000  0.65130000  1.0
  C  C693  1  0.04750000  0.56350000  0.62480000  1.0
  C  C694  1  0.00260000  0.60870000  0.64300000  1.0
  C  C695  1  0.03880000  0.55110000  0.57670000  1.0
  C  C696  1  0.77590000  0.84560000  0.78030000  1.0
  C  C697  1  0.72650000  0.89560000  0.80290000  1.0
  C  C698  1  0.67780000  0.93190000  0.77820000  1.0
  C  C699  1  0.63070000  0.97710000  0.79890000  1.0
  C  C700  1  0.63870000  0.98340000  0.84220000  1.0
  C  C701  1  0.69050000  0.94660000  0.86770000  1.0
  C  C702  1  0.73580000  0.90140000  0.84670000  1.0
  C  C703  1  0.70020000  0.95550000  0.91550000  1.0
  N  N704  1  0.31060000  0.81030000  0.64430000  1.0
  N  N705  1  0.25660000  0.87320000  0.57190000  1.0
  N  N706  1  0.45490000  0.68360000  0.85620000  1.0
  N  N707  1  0.49500000  0.62600000  0.93240000  1.0
  N  N708  1  0.56280000  0.69290000  0.34920000  1.0
  N  N709  1  0.51650000  0.62700000  0.42030000  1.0
  N  N710  1  0.70150000  0.81570000  0.13300000  1.0
  N  N711  1  0.74200000  0.87700000  0.05830000  1.0
  N  N712  1  0.18940000  0.68970000  0.64430000  1.0
  N  N713  1  0.24340000  0.62680000  0.57190000  1.0
  N  N714  1  0.04510000  0.81640000  0.85620000  1.0
  N  N715  1  0.00500000  0.87400000  0.93240000  1.0
  N  N716  1  0.93720000  0.80710000  0.34920000  1.0
  N  N717  1  0.98350000  0.87300000  0.42030000  1.0
  N  N718  1  0.79850000  0.68430000  0.13300000  1.0
  N  N719  1  0.75800000  0.62300000  0.05830000  1.0
  N  N720  1  0.68940000  0.31030000  0.85570000  1.0
  N  N721  1  0.74340000  0.37320000  0.92810000  1.0
  N  N722  1  0.54510000  0.18360000  0.64380000  1.0
  N  N723  1  0.50500000  0.12600000  0.56760000  1.0
  N  N724  1  0.43720000  0.19290000  0.15080000  1.0
  N  N725  1  0.48350000  0.12700000  0.07970000  1.0
  N  N726  1  0.29850000  0.31570000  0.36700000  1.0
  N  N727  1  0.25800000  0.37700000  0.44170000  1.0
  N  N728  1  0.81060000  0.18970000  0.85570000  1.0
  N  N729  1  0.75660000  0.12680000  0.92810000  1.0
  N  N730  1  0.95490000  0.31640000  0.64380000  1.0
  N  N731  1  0.99500000  0.37400000  0.56760000  1.0
  N  N732  1  0.06280000  0.30710000  0.15080000  1.0
  N  N733  1  0.01650000  0.37300000  0.07970000  1.0
  N  N734  1  0.20150000  0.18430000  0.36700000  1.0
  N  N735  1  0.24200000  0.12300000  0.44170000  1.0
  N  N736  1  0.68940000  0.18970000  0.35570000  1.0
  N  N737  1  0.74340000  0.12680000  0.42810000  1.0
  N  N738  1  0.54510000  0.31640000  0.14380000  1.0
  N  N739  1  0.50500000  0.37400000  0.06760000  1.0
  N  N740  1  0.43720000  0.30710000  0.65080000  1.0
  N  N741  1  0.48350000  0.37300000  0.57970000  1.0
  N  N742  1  0.29850000  0.18430000  0.86700000  1.0
  N  N743  1  0.25800000  0.12300000  0.94170000  1.0
  N  N744  1  0.81060000  0.31030000  0.35570000  1.0
  N  N745  1  0.75660000  0.37320000  0.42810000  1.0
  N  N746  1  0.95490000  0.18360000  0.14380000  1.0
  N  N747  1  0.99500000  0.12600000  0.06760000  1.0
  N  N748  1  0.06280000  0.19290000  0.65080000  1.0
  N  N749  1  0.01650000  0.12700000  0.57970000  1.0
  N  N750  1  0.20150000  0.31570000  0.86700000  1.0
  N  N751  1  0.24200000  0.37700000  0.94170000  1.0
  N  N752  1  0.31060000  0.68970000  0.14430000  1.0
  N  N753  1  0.25660000  0.62680000  0.07190000  1.0
  N  N754  1  0.45490000  0.81640000  0.35620000  1.0
  N  N755  1  0.49500000  0.87400000  0.43240000  1.0
  N  N756  1  0.56280000  0.80710000  0.84920000  1.0
  N  N757  1  0.51650000  0.87300000  0.92030000  1.0
  N  N758  1  0.70150000  0.68430000  0.63300000  1.0
  N  N759  1  0.74200000  0.62300000  0.55830000  1.0
  N  N760  1  0.18940000  0.81030000  0.14430000  1.0
  N  N761  1  0.24340000  0.87320000  0.07190000  1.0
  N  N762  1  0.04510000  0.68360000  0.35620000  1.0
  N  N763  1  0.00500000  0.62600000  0.43240000  1.0
  N  N764  1  0.93720000  0.69290000  0.84920000  1.0
  N  N765  1  0.98350000  0.62700000  0.92030000  1.0
  N  N766  1  0.79850000  0.81570000  0.63300000  1.0
  N  N767  1  0.75800000  0.87700000  0.55830000  1.0
  O  O768  1  0.27620000  0.82660000  0.75360000  1.0
  O  O769  1  0.34060000  0.79790000  0.81600000  1.0
  O  O770  1  0.28280000  0.90950000  0.94980000  1.0
  O  O771  1  0.18550000  0.98380000  0.94550000  1.0
  O  O772  1  0.42880000  0.69530000  0.68410000  1.0
  O  O773  1  0.48000000  0.65910000  0.74630000  1.0
  O  O774  1  0.57210000  0.52850000  0.54060000  1.0
  O  O775  1  0.47590000  0.60120000  0.54520000  1.0
  O  O776  1  0.58380000  0.69990000  0.18040000  1.0
  O  O777  1  0.53370000  0.67560000  0.24710000  1.0
  O  O778  1  0.51160000  0.58420000  0.05270000  1.0
  O  O779  1  0.42420000  0.50690000  0.06220000  1.0
  O  O780  1  0.72660000  0.84320000  0.24000000  1.0
  O  O781  1  0.68530000  0.81100000  0.30610000  1.0
  O  O782  1  0.75580000  0.91980000  0.43740000  1.0
  O  O783  1  0.84620000  0.99550000  0.43210000  1.0
  O  O784  1  0.22380000  0.67340000  0.75360000  1.0
  O  O785  1  0.15940000  0.70210000  0.81600000  1.0
  O  O786  1  0.21720000  0.59050000  0.94980000  1.0
  O  O787  1  0.31450000  0.51620000  0.94550000  1.0
  O  O788  1  0.07120000  0.80470000  0.68410000  1.0
  O  O789  1  0.02000000  0.84090000  0.74630000  1.0
  O  O790  1  0.92790000  0.97150000  0.54060000  1.0
  O  O791  1  0.02410000  0.89880000  0.54520000  1.0
  O  O792  1  0.91620000  0.80010000  0.18040000  1.0
  O  O793  1  0.96630000  0.82440000  0.24710000  1.0
  O  O794  1  0.98840000  0.91580000  0.05270000  1.0
  O  O795  1  0.07580000  0.99310000  0.06220000  1.0
  O  O796  1  0.77340000  0.65680000  0.24000000  1.0
  O  O797  1  0.81470000  0.68900000  0.30610000  1.0
  O  O798  1  0.74420000  0.58020000  0.43740000  1.0
  O  O799  1  0.65380000  0.50450000  0.43210000  1.0
  O  O800  1  0.72380000  0.32660000  0.74640000  1.0
  O  O801  1  0.65940000  0.29790000  0.68400000  1.0
  O  O802  1  0.71720000  0.40950000  0.55020000  1.0
  O  O803  1  0.81450000  0.48380000  0.55450000  1.0
  O  O804  1  0.57120000  0.19530000  0.81590000  1.0
  O  O805  1  0.52000000  0.15910000  0.75370000  1.0
  O  O806  1  0.42790000  0.02850000  0.95940000  1.0
  O  O807  1  0.52410000  0.10120000  0.95480000  1.0
  O  O808  1  0.41620000  0.19990000  0.31960000  1.0
  O  O809  1  0.46630000  0.17560000  0.25290000  1.0
  O  O810  1  0.48840000  0.08420000  0.44730000  1.0
  O  O811  1  0.57580000  0.00690000  0.43780000  1.0
  O  O812  1  0.27340000  0.34320000  0.26000000  1.0
  O  O813  1  0.31470000  0.31100000  0.19390000  1.0
  O  O814  1  0.24420000  0.41980000  0.06260000  1.0
  O  O815  1  0.15380000  0.49550000  0.06790000  1.0
  O  O816  1  0.77620000  0.17340000  0.74640000  1.0
  O  O817  1  0.84060000  0.20210000  0.68400000  1.0
  O  O818  1  0.78280000  0.09050000  0.55020000  1.0
  O  O819  1  0.68550000  0.01620000  0.55450000  1.0
  O  O820  1  0.92880000  0.30470000  0.81590000  1.0
  O  O821  1  0.98000000  0.34090000  0.75370000  1.0
  O  O822  1  0.07210000  0.47150000  0.95940000  1.0
  O  O823  1  0.97590000  0.39880000  0.95480000  1.0
  O  O824  1  0.08380000  0.30010000  0.31960000  1.0
  O  O825  1  0.03370000  0.32440000  0.25290000  1.0
  O  O826  1  0.01160000  0.41580000  0.44730000  1.0
  O  O827  1  0.92420000  0.49310000  0.43780000  1.0
  O  O828  1  0.22660000  0.15680000  0.26000000  1.0
  O  O829  1  0.18530000  0.18900000  0.19390000  1.0
  O  O830  1  0.25580000  0.08020000  0.06260000  1.0
  O  O831  1  0.34620000  0.00450000  0.06790000  1.0
  O  O832  1  0.72380000  0.17340000  0.24640000  1.0
  O  O833  1  0.65940000  0.20210000  0.18400000  1.0
  O  O834  1  0.71720000  0.09050000  0.05020000  1.0
  O  O835  1  0.81450000  0.01620000  0.05450000  1.0
  O  O836  1  0.57120000  0.30470000  0.31590000  1.0
  O  O837  1  0.52000000  0.34090000  0.25370000  1.0
  O  O838  1  0.42790000  0.47150000  0.45940000  1.0
  O  O839  1  0.52410000  0.39880000  0.45480000  1.0
  O  O840  1  0.41620000  0.30010000  0.81960000  1.0
  O  O841  1  0.46630000  0.32440000  0.75290000  1.0
  O  O842  1  0.48840000  0.41580000  0.94730000  1.0
  O  O843  1  0.57580000  0.49310000  0.93780000  1.0
  O  O844  1  0.27340000  0.15680000  0.76000000  1.0
  O  O845  1  0.31470000  0.18900000  0.69390000  1.0
  O  O846  1  0.24420000  0.08020000  0.56260000  1.0
  O  O847  1  0.15380000  0.00450000  0.56790000  1.0
  O  O848  1  0.77620000  0.32660000  0.24640000  1.0
  O  O849  1  0.84060000  0.29790000  0.18400000  1.0
  O  O850  1  0.78280000  0.40950000  0.05020000  1.0
  O  O851  1  0.68550000  0.48380000  0.05450000  1.0
  O  O852  1  0.92880000  0.19530000  0.31590000  1.0
  O  O853  1  0.98000000  0.15910000  0.25370000  1.0
  O  O854  1  0.07210000  0.02850000  0.45940000  1.0
  O  O855  1  0.97590000  0.10120000  0.45480000  1.0
  O  O856  1  0.08380000  0.19990000  0.81960000  1.0
  O  O857  1  0.03370000  0.17560000  0.75290000  1.0
  O  O858  1  0.01160000  0.08420000  0.94730000  1.0
  O  O859  1  0.92420000  0.00690000  0.93780000  1.0
  O  O860  1  0.22660000  0.34320000  0.76000000  1.0
  O  O861  1  0.18530000  0.31100000  0.69390000  1.0
  O  O862  1  0.25580000  0.41980000  0.56260000  1.0
  O  O863  1  0.34620000  0.49550000  0.56790000  1.0
  O  O864  1  0.27620000  0.67340000  0.25360000  1.0
  O  O865  1  0.34060000  0.70210000  0.31600000  1.0
  O  O866  1  0.28280000  0.59050000  0.44980000  1.0
  O  O867  1  0.18550000  0.51620000  0.44550000  1.0
  O  O868  1  0.42880000  0.80470000  0.18410000  1.0
  O  O869  1  0.48000000  0.84090000  0.24630000  1.0
  O  O870  1  0.57210000  0.97150000  0.04060000  1.0
  O  O871  1  0.47590000  0.89880000  0.04520000  1.0
  O  O872  1  0.58380000  0.80010000  0.68040000  1.0
  O  O873  1  0.53370000  0.82440000  0.74710000  1.0
  O  O874  1  0.51160000  0.91580000  0.55270000  1.0
  O  O875  1  0.42420000  0.99310000  0.56220000  1.0
  O  O876  1  0.72660000  0.65680000  0.74000000  1.0
  O  O877  1  0.68530000  0.68900000  0.80610000  1.0
  O  O878  1  0.75580000  0.58020000  0.93740000  1.0
  O  O879  1  0.84620000  0.50450000  0.93210000  1.0
  O  O880  1  0.22380000  0.82660000  0.25360000  1.0
  O  O881  1  0.15940000  0.79790000  0.31600000  1.0
  O  O882  1  0.21720000  0.90950000  0.44980000  1.0
  O  O883  1  0.31450000  0.98380000  0.44550000  1.0
  O  O884  1  0.07120000  0.69530000  0.18410000  1.0
  O  O885  1  0.02000000  0.65910000  0.24630000  1.0
  O  O886  1  0.92790000  0.52850000  0.04060000  1.0
  O  O887  1  0.02410000  0.60120000  0.04520000  1.0
  O  O888  1  0.91620000  0.69990000  0.68040000  1.0
  O  O889  1  0.96630000  0.67560000  0.74710000  1.0
  O  O890  1  0.98840000  0.58420000  0.55270000  1.0
  O  O891  1  0.07580000  0.50690000  0.56220000  1.0
  O  O892  1  0.77340000  0.84320000  0.74000000  1.0
  O  O893  1  0.81470000  0.81100000  0.80610000  1.0
  O  O894  1  0.74420000  0.91980000  0.93740000  1.0
  O  O895  1  0.65380000  0.99550000  0.93210000  1.0
