# generated using pymatgen
data_Cd6H83(C6O)24
_symmetry_space_group_name_H-M   'P 1'
_cell_length_a   13.96900000
_cell_length_b   42.43900000
_cell_length_c   33.47000000
_cell_angle_alpha   90.00000000
_cell_angle_beta   90.00000000
_cell_angle_gamma   90.00000000
_symmetry_Int_Tables_number   1
_chemical_formula_structural   Cd6H83(C6O)24
_chemical_formula_sum   'Cd24 H332 C576 O96'
_cell_volume   19842.03318677
_cell_formula_units_Z   4
loop_
 _symmetry_equiv_pos_site_id
 _symmetry_equiv_pos_as_xyz
  1  'x, y, z'
loop_
 _atom_site_type_symbol
 _atom_site_label
 _atom_site_symmetry_multiplicity
 _atom_site_fract_x
 _atom_site_fract_y
 _atom_site_fract_z
 _atom_site_occupancy
  Cd  Cd0  1  0.46485000  0.81723000  0.80580000  1.0
  Cd  Cd1  1  0.19399000  0.63744000  0.30034000  1.0
  Cd  Cd2  1  0.96485000  0.68277000  0.30580000  1.0
  Cd  Cd3  1  0.69399000  0.86256000  0.80034000  1.0
  Cd  Cd4  1  0.53515000  0.18277000  0.30580000  1.0
  Cd  Cd5  1  0.91583000  0.83897000  0.75334000  1.0
  Cd  Cd6  1  0.30601000  0.13744000  0.30034000  1.0
  Cd  Cd7  1  0.08417000  0.16103000  0.25334000  1.0
  Cd  Cd8  1  0.58417000  0.33897000  0.75334000  1.0
  Cd  Cd9  1  0.41583000  0.66103000  0.25334000  1.0
  Cd  Cd10  1  0.80601000  0.36256000  0.80034000  1.0
  Cd  Cd11  1  0.03515000  0.31723000  0.80580000  1.0
  Cd  Cd12  1  0.92399000  0.17917000  0.99629000  1.0
  Cd  Cd13  1  0.35119000  0.63521000  0.98903000  1.0
  Cd  Cd14  1  0.57601000  0.67917000  0.99629000  1.0
  Cd  Cd15  1  0.12124000  0.67100000  0.02263000  1.0
  Cd  Cd16  1  0.14881000  0.13521000  0.98903000  1.0
  Cd  Cd17  1  0.37876000  0.17100000  0.02263000  1.0
  Cd  Cd18  1  0.87876000  0.32900000  0.52263000  1.0
  Cd  Cd19  1  0.64881000  0.36479000  0.48903000  1.0
  Cd  Cd20  1  0.07601000  0.82083000  0.49629000  1.0
  Cd  Cd21  1  0.42399000  0.32083000  0.49629000  1.0
  Cd  Cd22  1  0.62124000  0.82900000  0.52263000  1.0
  Cd  Cd23  1  0.85119000  0.86479000  0.48903000  1.0
  H  H24  1  0.71890000  0.24950000  0.21410000  1.0
  H  H25  1  0.35020000  0.36470000  0.92630000  1.0
  H  H26  1  0.42420000  0.45840000  0.07060000  1.0
  H  H27  1  0.73720000  0.05970000  0.21070000  1.0
  H  H28  1  0.39300000  0.43780000  0.03400000  1.0
  H  H29  1  0.34480000  0.03680000  0.55890000  1.0
  H  H30  1  0.26280000  0.94030000  0.71070000  1.0
  H  H31  1  0.20300000  0.65020000  0.60010000  1.0
  H  H32  1  0.59200000  0.85130000  0.10670000  1.0
  H  H33  1  0.76280000  0.55970000  0.21070000  1.0
  H  H34  1  0.83080000  0.60950000  0.23090000  1.0
  H  H35  1  0.75700000  0.92490000  0.23800000  1.0
  H  H36  1  0.62090000  0.29540000  0.31260000  1.0
  H  H37  1  0.87910000  0.79540000  0.31260000  1.0
  H  H38  1  0.32380000  0.32650000  0.05570000  1.0
  H  H39  1  0.42120000  0.24800000  0.27710000  1.0
  H  H40  1  0.10700000  0.93780000  0.03400000  1.0
  H  H41  1  0.57880000  0.75200000  0.77710000  1.0
  H  H42  1  0.33850000  0.10040000  0.39760000  1.0
  H  H43  1  0.59130000  0.92280000  0.71860000  1.0
  H  H44  1  0.33080000  0.89050000  0.73090000  1.0
  H  H45  1  0.41110000  0.01750000  0.58760000  1.0
  H  H46  1  0.51090000  0.16940000  0.44290000  1.0
  H  H47  1  0.16740000  0.81300000  0.09910000  1.0
  H  H48  1  0.79980000  0.48720000  0.08920000  1.0
  H  H49  1  0.82030000  0.86380000  0.92450000  1.0
  H  H50  1  0.15520000  0.53680000  0.55890000  1.0
  H  H51  1  0.14980000  0.86470000  0.92630000  1.0
  H  H52  1  0.96910000  0.47090000  0.68780000  1.0
  H  H53  1  0.91110000  0.48250000  0.08760000  1.0
  H  H54  1  0.79540000  0.29210000  0.19720000  1.0
  H  H55  1  0.57520000  0.67700000  0.57560000  1.0
  H  H56  1  0.74090000  0.51310000  0.73570000  1.0
  H  H57  1  0.08890000  0.51750000  0.58760000  1.0
  H  H58  1  0.75910000  0.01310000  0.73570000  1.0
  H  H59  1  0.40800000  0.14870000  0.60670000  1.0
  H  H60  1  0.25910000  0.48690000  0.23570000  1.0
  H  H61  1  0.21890000  0.25050000  0.71410000  1.0
  H  H62  1  0.78040000  0.46700000  0.76350000  1.0
  H  H63  1  0.70300000  0.84980000  0.10010000  1.0
  H  H64  1  0.24480000  0.91390000  0.20360000  1.0
  H  H65  1  0.70460000  0.79210000  0.19720000  1.0
  H  H66  1  0.08620000  0.03150000  0.15580000  1.0
  H  H67  1  0.85020000  0.13530000  0.42630000  1.0
  H  H68  1  0.09130000  0.57720000  0.21860000  1.0
  H  H69  1  0.92120000  0.25200000  0.77710000  1.0
  H  H70  1  0.80130000  0.83930000  0.28670000  1.0
  H  H71  1  0.63430000  0.58930000  0.71050000  1.0
  H  H72  1  0.23720000  0.44030000  0.71070000  1.0
  H  H73  1  0.09200000  0.64870000  0.60670000  1.0
  H  H74  1  0.58620000  0.46850000  0.65580000  1.0
  H  H75  1  0.14650000  0.57030000  0.74350000  1.0
  H  H76  1  0.18410000  0.95640000  0.05860000  1.0
  H  H77  1  0.53200000  0.84840000  0.00710000  1.0
  H  H78  1  0.36570000  0.41070000  0.21050000  1.0
  H  H79  1  0.37910000  0.70460000  0.81260000  1.0
  H  H80  1  0.24090000  0.98690000  0.23570000  1.0
  H  H81  1  0.29700000  0.15020000  0.60010000  1.0
  H  H82  1  0.13430000  0.91070000  0.21050000  1.0
  H  H83  1  0.57580000  0.54160000  0.57060000  1.0
  H  H84  1  0.10350000  0.13180000  0.48080000  1.0
  H  H85  1  0.16150000  0.60040000  0.39760000  1.0
  H  H86  1  0.82000000  0.41880000  0.96120000  1.0
  H  H87  1  0.41860000  0.29620000  0.24600000  1.0
  H  H88  1  0.17620000  0.82650000  0.05570000  1.0
  H  H89  1  0.58140000  0.70380000  0.74600000  1.0
  H  H90  1  0.79700000  0.34980000  0.10010000  1.0
  H  H91  1  0.16920000  0.39050000  0.73090000  1.0
  H  H92  1  0.33260000  0.31300000  0.09910000  1.0
  H  H93  1  0.69870000  0.33930000  0.28670000  1.0
  H  H94  1  0.28110000  0.75050000  0.71410000  1.0
  H  H95  1  0.57550000  0.64420000  0.36790000  1.0
  H  H96  1  0.64980000  0.63530000  0.42630000  1.0
  H  H97  1  0.01090000  0.33060000  0.94290000  1.0
  H  H98  1  0.98910000  0.66940000  0.44290000  1.0
  H  H99  1  0.71200000  0.95840000  0.23240000  1.0
  H  H100  1  0.81590000  0.04360000  0.55860000  1.0
  H  H101  1  0.66920000  0.10950000  0.23090000  1.0
  H  H102  1  0.20460000  0.70790000  0.69720000  1.0
  H  H103  1  0.29540000  0.20790000  0.69720000  1.0
  H  H104  1  0.60700000  0.56220000  0.53400000  1.0
  H  H105  1  0.34050000  0.15860000  0.64200000  1.0
  H  H106  1  0.85350000  0.42970000  0.24350000  1.0
  H  H107  1  0.67970000  0.36380000  0.92450000  1.0
  H  H108  1  0.40870000  0.07720000  0.21860000  1.0
  H  H109  1  0.20020000  0.51280000  0.58920000  1.0
  H  H110  1  0.28040000  0.03300000  0.26350000  1.0
  H  H111  1  0.65950000  0.84140000  0.14200000  1.0
  H  H112  1  0.11180000  0.07760000  0.19080000  1.0
  H  H113  1  0.82380000  0.17350000  0.55570000  1.0
  H  H114  1  0.91860000  0.20380000  0.74600000  1.0
  H  H115  1  0.18480000  0.26760000  0.18420000  1.0
  H  H116  1  0.30000000  0.38070000  0.21240000  1.0
  H  H117  1  0.21200000  0.54160000  0.73240000  1.0
  H  H118  1  0.75520000  0.08610000  0.70360000  1.0
  H  H119  1  0.90870000  0.42280000  0.71860000  1.0
  H  H120  1  0.83260000  0.18700000  0.59910000  1.0
  H  H121  1  0.65520000  0.96320000  0.05890000  1.0
  H  H122  1  0.89300000  0.06220000  0.53400000  1.0
  H  H123  1  0.32000000  0.08120000  0.46120000  1.0
  H  H124  1  0.20000000  0.88070000  0.21240000  1.0
  H  H125  1  0.66740000  0.68700000  0.59910000  1.0
  H  H126  1  0.53090000  0.97090000  0.68780000  1.0
  H  H127  1  0.24300000  0.07510000  0.73800000  1.0
  H  H128  1  0.91380000  0.96850000  0.65580000  1.0
  H  H129  1  0.74300000  0.42490000  0.23800000  1.0
  H  H130  1  0.81530000  0.77700000  0.72020000  1.0
  H  H131  1  0.48910000  0.83060000  0.94290000  1.0
  H  H132  1  0.70000000  0.61930000  0.71240000  1.0
  H  H133  1  0.08140000  0.79620000  0.24600000  1.0
  H  H134  1  0.39650000  0.63180000  0.48080000  1.0
  H  H135  1  0.15950000  0.65860000  0.64200000  1.0
  H  H136  1  0.46800000  0.15160000  0.50710000  1.0
  H  H137  1  0.90800000  0.35130000  0.10670000  1.0
  H  H138  1  0.31530000  0.72300000  0.22020000  1.0
  H  H139  1  0.66150000  0.89960000  0.89760000  1.0
  H  H140  1  0.28800000  0.04160000  0.73240000  1.0
  H  H141  1  0.67620000  0.67350000  0.55570000  1.0
  H  H142  1  0.92480000  0.17700000  0.57560000  1.0
  H  H143  1  0.68470000  0.27700000  0.72020000  1.0
  H  H144  1  0.31590000  0.45640000  0.05860000  1.0
  H  H145  1  0.92420000  0.04160000  0.57060000  1.0
  H  H146  1  0.84050000  0.34140000  0.14200000  1.0
  H  H147  1  0.78800000  0.45840000  0.23240000  1.0
  H  H148  1  0.35350000  0.07030000  0.74350000  1.0
  H  H149  1  0.41380000  0.53150000  0.15580000  1.0
  H  H150  1  0.78110000  0.74950000  0.21410000  1.0
  H  H151  1  0.19870000  0.16070000  0.78670000  1.0
  H  H152  1  0.81520000  0.73240000  0.68420000  1.0
  H  H153  1  0.71960000  0.96700000  0.76350000  1.0
  H  H154  1  0.61180000  0.42240000  0.69080000  1.0
  H  H155  1  0.18000000  0.58120000  0.46120000  1.0
  H  H156  1  0.84480000  0.46320000  0.05890000  1.0
  H  H157  1  0.68410000  0.54360000  0.55860000  1.0
  H  H158  1  0.42480000  0.32300000  0.07560000  1.0
  H  H159  1  0.70020000  0.98720000  0.08920000  1.0
  H  H160  1  0.31520000  0.76760000  0.18420000  1.0
  H  H161  1  0.64650000  0.92970000  0.24350000  1.0
  H  H162  1  0.74480000  0.58610000  0.70360000  1.0
  H  H163  1  0.80000000  0.11930000  0.71240000  1.0
  H  H164  1  0.07880000  0.74800000  0.27710000  1.0
  H  H165  1  0.07550000  0.85580000  0.86790000  1.0
  H  H166  1  0.96800000  0.34840000  0.00710000  1.0
  H  H167  1  0.46910000  0.02910000  0.18780000  1.0
  H  H168  1  0.07580000  0.95840000  0.07060000  1.0
  H  H169  1  0.60350000  0.36820000  0.98080000  1.0
  H  H170  1  0.38820000  0.57760000  0.19080000  1.0
  H  H171  1  0.03200000  0.65160000  0.50710000  1.0
  H  H172  1  0.88820000  0.92240000  0.69080000  1.0
  H  H173  1  0.25700000  0.57510000  0.73800000  1.0
  H  H174  1  0.25520000  0.41390000  0.20360000  1.0
  H  H175  1  0.29980000  0.01280000  0.58920000  1.0
  H  H176  1  0.07520000  0.82300000  0.07560000  1.0
  H  H177  1  0.12090000  0.20460000  0.81260000  1.0
  H  H178  1  0.42450000  0.35580000  0.86790000  1.0
  H  H179  1  0.03090000  0.52910000  0.18780000  1.0
  H  H180  1  0.30130000  0.66070000  0.78670000  1.0
  H  H181  1  0.89650000  0.86820000  0.98080000  1.0
  H  H182  1  0.17970000  0.13620000  0.42450000  1.0
  H  H183  1  0.21960000  0.53300000  0.26350000  1.0
  H  H184  1  0.58890000  0.98250000  0.08760000  1.0
  H  H185  1  0.32030000  0.63620000  0.42450000  1.0
  H  H186  1  0.18470000  0.22300000  0.22020000  1.0
  H  H187  1  0.92450000  0.14420000  0.36790000  1.0
  H  H188  1  0.68480000  0.23240000  0.68420000  1.0
  H  H189  1  0.68000000  0.91880000  0.96120000  1.0
  H  H190  1  0.86570000  0.08930000  0.71050000  1.0
  H  H191  1  0.83850000  0.39960000  0.89760000  1.0
  H  H192  1  0.58370000  0.40670000  0.04070000  1.0
  H  H193  1  0.81560000  0.92060000  0.05140000  1.0
  H  H194  1  0.59540000  0.66930000  0.85700000  1.0
  H  H195  1  0.42600000  0.57560000  0.04880000  1.0
  H  H196  1  0.61600000  0.04300000  0.71940000  1.0
  H  H197  1  0.57120000  0.15330000  0.84020000  1.0
  H  H198  1  0.05840000  0.41360000  0.06530000  1.0
  H  H199  1  0.74080000  0.00230000  0.57280000  1.0
  H  H200  1  0.55770000  0.27870000  0.05160000  1.0
  H  H201  1  0.44230000  0.72130000  0.55160000  1.0
  H  H202  1  0.02420000  0.44310000  0.23980000  1.0
  H  H203  1  0.43940000  0.55080000  0.72810000  1.0
  H  H204  1  0.90620000  0.94240000  0.05210000  1.0
  H  H205  1  0.49710000  0.96530000  0.61100000  1.0
  H  H206  1  0.03720000  0.29590000  0.02500000  1.0
  H  H207  1  0.46280000  0.79590000  0.02500000  1.0
  H  H208  1  0.80170000  0.09420000  0.07570000  1.0
  H  H209  1  0.25920000  0.99770000  0.07280000  1.0
  H  H210  1  0.21740000  0.04720000  0.04810000  1.0
  H  H211  1  0.61150000  0.40990000  0.32050000  1.0
  H  H212  1  0.33130000  0.91140000  0.07360000  1.0
  H  H213  1  0.02210000  0.67250000  0.69740000  1.0
  H  H214  1  0.44340000  0.52630000  0.07680000  1.0
  H  H215  1  0.63640000  0.23440000  0.02300000  1.0
  H  H216  1  0.47790000  0.17250000  0.69740000  1.0
  H  H217  1  0.16700000  0.60850000  0.80500000  1.0
  H  H218  1  0.38070000  0.52860000  0.69980000  1.0
  H  H219  1  0.52210000  0.82750000  0.19740000  1.0
  H  H220  1  0.16220000  0.70990000  0.48490000  1.0
  H  H221  1  0.38850000  0.59010000  0.82050000  1.0
  H  H222  1  0.95220000  0.82850000  0.14270000  1.0
  H  H223  1  0.78260000  0.95280000  0.54810000  1.0
  H  H224  1  0.30170000  0.40580000  0.57570000  1.0
  H  H225  1  0.40460000  0.33070000  0.35700000  1.0
  H  H226  1  0.41610000  0.59990000  0.88760000  1.0
  H  H227  1  0.16870000  0.41140000  0.07360000  1.0
  H  H228  1  0.45220000  0.67150000  0.64270000  1.0
  H  H229  1  0.51610000  0.33870000  0.18570000  1.0
  H  H230  1  0.26300000  0.72170000  0.08200000  1.0
  H  H231  1  0.37520000  0.66666667  0.67620000  1.0
  H  H232  1  0.97040000  0.42050000  0.57450000  1.0
  H  H233  1  0.09540000  0.83070000  0.35700000  1.0
  H  H234  1  0.12480000  0.16670000  0.67620000  1.0
  H  H235  1  0.99480000  0.33390000  0.39930000  1.0
  H  H236  1  0.38400000  0.95700000  0.21940000  1.0
  H  H237  1  0.52960000  0.92050000  0.57450000  1.0
  H  H238  1  0.83300000  0.39150000  0.30500000  1.0
  H  H239  1  0.83130000  0.58860000  0.57360000  1.0
  H  H240  1  0.41630000  0.59330000  0.54070000  1.0
  H  H241  1  0.33300000  0.10850000  0.80500000  1.0
  H  H242  1  0.11150000  0.09010000  0.82050000  1.0
  H  H243  1  0.09380000  0.05760000  0.55210000  1.0
  H  H244  1  0.00760000  0.03020000  0.69620000  1.0
  H  H245  1  0.96280000  0.70410000  0.52500000  1.0
  H  H246  1  0.11930000  0.02860000  0.69980000  1.0
  H  H247  1  0.86360000  0.73440000  0.02300000  1.0
  H  H248  1  0.28260000  0.54720000  0.04810000  1.0
  H  H249  1  0.66870000  0.08860000  0.57360000  1.0
  H  H250  1  0.18440000  0.07940000  0.55140000  1.0
  H  H251  1  0.97790000  0.32750000  0.19740000  1.0
  H  H252  1  0.53720000  0.20410000  0.52500000  1.0
  H  H253  1  0.57410000  0.18320000  0.67750000  1.0
  H  H254  1  0.58680000  0.65330000  0.79000000  1.0
  H  H255  1  0.98390000  0.83870000  0.18570000  1.0
  H  H256  1  0.00290000  0.46530000  0.61100000  1.0
  H  H257  1  0.77010000  0.33333333  0.01580000  1.0
  H  H258  1  0.08370000  0.09330000  0.54070000  1.0
  H  H259  1  0.55370000  0.25100000  0.49450000  1.0
  H  H260  1  0.44160000  0.91360000  0.06530000  1.0
  H  H261  1  0.92600000  0.92440000  0.54880000  1.0
  H  H262  1  0.07410000  0.31680000  0.17750000  1.0
  H  H263  1  0.91610000  0.90010000  0.38760000  1.0
  H  H264  1  0.44630000  0.74900000  0.99450000  1.0
  H  H265  1  0.89060000  0.61940000  0.56620000  1.0
  H  H266  1  0.36360000  0.76560000  0.52300000  1.0
  H  H267  1  0.42880000  0.84670000  0.34020000  1.0
  H  H268  1  0.04780000  0.17150000  0.64270000  1.0
  H  H269  1  0.08390000  0.09990000  0.88760000  1.0
  H  H270  1  0.49240000  0.53020000  0.69620000  1.0
  H  H271  1  0.49480000  0.16610000  0.89930000  1.0
  H  H272  1  0.69830000  0.59420000  0.07570000  1.0
  H  H273  1  0.13640000  0.26560000  0.52300000  1.0
  H  H274  1  0.47580000  0.94310000  0.23980000  1.0
  H  H275  1  0.10940000  0.38060000  0.06620000  1.0
  H  H276  1  0.08680000  0.84670000  0.29000000  1.0
  H  H277  1  0.92590000  0.68320000  0.67750000  1.0
  H  H278  1  0.55660000  0.47370000  0.57680000  1.0
  H  H279  1  0.61930000  0.47140000  0.19980000  1.0
  H  H280  1  0.31560000  0.57940000  0.55140000  1.0
  H  H281  1  0.56060000  0.44920000  0.22810000  1.0
  H  H282  1  0.24290000  0.61830000  0.86870000  1.0
  H  H283  1  0.94630000  0.75100000  0.49450000  1.0
  H  H284  1  0.83780000  0.29010000  0.98490000  1.0
  H  H285  1  0.48390000  0.66130000  0.68570000  1.0
  H  H286  1  0.88850000  0.90990000  0.32050000  1.0
  H  H287  1  0.01440000  0.46510000  0.20240000  1.0
  H  H288  1  0.71740000  0.45280000  0.54810000  1.0
  H  H289  1  0.73700000  0.27830000  0.58200000  1.0
  H  H290  1  0.05660000  0.02630000  0.07680000  1.0
  H  H291  1  0.25710000  0.11830000  0.86870000  1.0
  H  H292  1  0.57400000  0.42440000  0.54880000  1.0
  H  H293  1  0.06060000  0.05080000  0.72810000  1.0
  H  H294  1  0.93940000  0.94920000  0.22810000  1.0
  H  H295  1  0.88400000  0.54300000  0.71940000  1.0
  H  H296  1  0.07430000  0.33010000  0.22120000  1.0
  H  H297  1  0.01610000  0.16130000  0.68570000  1.0
  H  H298  1  0.42570000  0.83010000  0.22120000  1.0
  H  H299  1  0.02960000  0.57950000  0.07450000  1.0
  H  H300  1  0.57430000  0.16990000  0.72120000  1.0
  H  H301  1  0.76300000  0.77830000  0.58200000  1.0
  H  H302  1  0.78200000  0.72980000  0.61030000  1.0
  H  H303  1  0.92880000  0.65330000  0.84020000  1.0
  H  H304  1  0.75710000  0.38170000  0.36870000  1.0
  H  H305  1  0.39060000  0.88060000  0.06620000  1.0
  H  H306  1  0.33780000  0.20990000  0.48490000  1.0
  H  H307  1  0.68440000  0.42060000  0.05140000  1.0
  H  H308  1  0.28200000  0.77020000  0.11030000  1.0
  H  H309  1  0.74290000  0.88170000  0.36870000  1.0
  H  H310  1  0.58390000  0.40010000  0.38760000  1.0
  H  H311  1  0.50760000  0.46980000  0.19620000  1.0
  H  H312  1  0.92570000  0.66990000  0.72120000  1.0
  H  H313  1  0.94340000  0.97370000  0.57680000  1.0
  H  H314  1  0.52420000  0.05690000  0.73980000  1.0
  H  H315  1  0.21800000  0.27020000  0.11030000  1.0
  H  H316  1  0.00520000  0.66610000  0.89930000  1.0
  H  H317  1  0.27010000  0.16670000  0.51580000  1.0
  H  H318  1  0.55840000  0.08640000  0.56530000  1.0
  H  H319  1  0.50520000  0.83390000  0.39930000  1.0
  H  H320  1  0.91320000  0.15330000  0.79000000  1.0
  H  H321  1  0.07400000  0.07560000  0.04880000  1.0
  H  H322  1  0.88070000  0.97140000  0.19980000  1.0
  H  H323  1  0.54780000  0.32850000  0.14270000  1.0
  H  H324  1  0.50290000  0.03470000  0.11100000  1.0
  H  H325  1  0.47040000  0.07950000  0.07450000  1.0
  H  H326  1  0.59380000  0.44240000  0.05210000  1.0
  H  H327  1  0.51440000  0.03490000  0.70240000  1.0
  H  H328  1  0.24080000  0.49770000  0.07280000  1.0
  H  H329  1  0.99710000  0.53470000  0.11100000  1.0
  H  H330  1  0.94160000  0.58640000  0.56530000  1.0
  H  H331  1  0.98560000  0.53490000  0.70240000  1.0
  H  H332  1  0.66220000  0.79010000  0.98490000  1.0
  H  H333  1  0.94230000  0.77870000  0.05160000  1.0
  H  H334  1  0.41320000  0.34670000  0.29000000  1.0
  H  H335  1  0.05370000  0.24900000  0.99450000  1.0
  H  H336  1  0.11600000  0.45700000  0.21940000  1.0
  H  H337  1  0.07120000  0.34670000  0.34020000  1.0
  H  H338  1  0.05770000  0.22130000  0.55160000  1.0
  H  H339  1  0.97580000  0.55690000  0.73980000  1.0
  H  H340  1  0.72990000  0.83330000  0.01580000  1.0
  H  H341  1  0.42590000  0.81680000  0.17750000  1.0
  H  H342  1  0.66700000  0.89150000  0.30500000  1.0
  H  H343  1  0.22990000  0.66666667  0.51580000  1.0
  H  H344  1  0.90460000  0.16930000  0.85700000  1.0
  H  H345  1  0.87520000  0.83330000  0.17620000  1.0
  H  H346  1  0.23700000  0.22170000  0.08200000  1.0
  H  H347  1  0.75920000  0.50230000  0.57280000  1.0
  H  H348  1  0.40620000  0.55760000  0.55210000  1.0
  H  H349  1  0.62480000  0.33333333  0.17620000  1.0
  H  H350  1  0.48560000  0.96510000  0.20240000  1.0
  H  H351  1  0.60940000  0.11940000  0.56620000  1.0
  H  H352  1  0.19830000  0.90580000  0.57570000  1.0
  H  H353  1  0.99240000  0.96980000  0.19620000  1.0
  H  H354  1  0.71800000  0.22980000  0.61030000  1.0
  H  H355  1  0.91630000  0.90670000  0.04070000  1.0
  C  C356  1  0.74480000  0.79270000  0.21930000  1.0
  C  C357  1  0.16230000  0.60970000  0.63200000  1.0
  C  C358  1  0.55220000  0.85940000  0.98460000  1.0
  C  C359  1  0.14970000  0.52780000  0.58510000  1.0
  C  C360  1  0.75520000  0.29270000  0.21930000  1.0
  C  C361  1  0.26720000  0.73770000  0.22440000  1.0
  C  C362  1  0.41940000  0.37590000  0.99750000  1.0
  C  C363  1  0.30970000  0.55980000  0.23240000  1.0
  C  C364  1  0.72130000  0.49420000  0.72440000  1.0
  C  C365  1  0.30160000  0.23160000  0.25170000  1.0
  C  C366  1  0.50810000  0.87470000  0.74980000  1.0
  C  C367  1  0.18350000  0.60320000  0.67360000  1.0
  C  C368  1  0.85700000  0.40080000  0.95730000  1.0
  C  C369  1  0.19030000  0.05980000  0.23240000  1.0
  C  C370  1  0.19440000  0.70090000  0.27090000  1.0
  C  C371  1  0.14060000  0.48760000  0.68140000  1.0
  C  C372  1  0.53600000  0.09740000  0.22860000  1.0
  C  C373  1  0.65800000  0.98570000  0.17060000  1.0
  C  C374  1  0.97430000  0.42580000  0.71580000  1.0
  C  C375  1  0.38680000  0.63700000  0.42480000  1.0
  C  C376  1  0.63770000  0.58360000  0.58790000  1.0
  C  C377  1  0.25520000  0.20730000  0.71930000  1.0
  C  C378  1  0.83770000  0.39030000  0.13200000  1.0
  C  C379  1  0.32510000  0.39530000  0.15380000  1.0
  C  C380  1  0.10380000  0.61300000  0.48950000  1.0
  C  C381  1  0.69030000  0.44020000  0.73240000  1.0
  C  C382  1  0.33240000  0.47570000  0.16130000  1.0
  C  C383  1  0.69440000  0.79910000  0.77090000  1.0
  C  C384  1  0.16230000  0.95190000  0.14450000  1.0
  C  C385  1  0.69840000  0.76840000  0.75170000  1.0
  C  C386  1  0.73210000  0.23550000  0.70330000  1.0
  C  C387  1  0.70520000  0.41170000  0.75810000  1.0
  C  C388  1  0.80970000  0.94020000  0.73240000  1.0
  C  C389  1  0.54840000  0.85120000  0.87240000  1.0
  C  C390  1  0.69680000  0.87370000  0.20000000  1.0
  C  C391  1  0.79960000  0.82080000  0.27180000  1.0
  C  C392  1  0.82510000  0.10470000  0.65380000  1.0
  C  C393  1  0.81000000  0.09930000  0.69940000  1.0
  C  C394  1  0.32630000  0.50640000  0.18670000  1.0
  C  C395  1  0.31330000  0.07050000  0.68520000  1.0
  C  C396  1  0.57220000  0.86370000  0.91350000  1.0
  C  C397  1  0.12830000  0.40700000  0.72450000  1.0
  C  C398  1  0.36880000  0.11010000  0.41900000  1.0
  C  C399  1  0.58320000  0.63590000  0.42570000  1.0
  C  C400  1  0.28720000  0.73260000  0.73000000  1.0
  C  C401  1  0.86880000  0.38990000  0.91900000  1.0
  C  C402  1  0.30560000  0.20090000  0.27090000  1.0
  C  C403  1  0.84700000  0.79450000  0.28830000  1.0
  C  C404  1  0.85030000  0.47220000  0.08510000  1.0
  C  C405  1  0.23280000  0.23770000  0.22440000  1.0
  C  C406  1  0.96720000  0.13140000  0.46030000  1.0
  C  C407  1  0.33770000  0.45190000  0.14450000  1.0
  C  C408  1  0.79480000  0.91170000  0.75810000  1.0
  C  C409  1  0.49190000  0.12530000  0.24980000  1.0
  C  C410  1  0.34240000  0.73430000  0.76460000  1.0
  C  C411  1  0.76790000  0.73550000  0.70330000  1.0
  C  C412  1  0.82770000  0.13600000  0.63850000  1.0
  C  C413  1  0.94780000  0.35940000  0.98460000  1.0
  C  C414  1  0.82630000  0.99360000  0.68670000  1.0
  C  C415  1  0.05220000  0.64060000  0.48460000  1.0
  C  C416  1  0.66760000  0.52430000  0.66130000  1.0
  C  C417  1  0.86480000  0.40680000  0.06340000  1.0
  C  C418  1  0.41680000  0.36410000  0.92570000  1.0
  C  C419  1  0.66230000  0.89030000  0.13200000  1.0
  C  C420  1  0.52960000  0.84780000  0.94650000  1.0
  C  C421  1  0.71280000  0.26740000  0.23000000  1.0
  C  C422  1  0.97040000  0.34780000  0.94650000  1.0
  C  C423  1  0.18370000  0.83940000  0.16380000  1.0
  C  C424  1  0.19940000  0.78790000  0.20940000  1.0
  C  C425  1  0.84240000  0.76570000  0.26460000  1.0
  C  C426  1  0.99190000  0.37470000  0.74980000  1.0
  C  C427  1  0.87280000  0.24720000  0.75900000  1.0
  C  C428  1  0.18670000  0.57050000  0.68520000  1.0
  C  C429  1  0.39080000  0.64820000  0.34670000  1.0
  C  C430  1  0.23210000  0.26450000  0.20330000  1.0
  C  C431  1  0.80320000  0.37370000  0.20000000  1.0
  C  C432  1  0.96400000  0.59740000  0.22860000  1.0
  C  C433  1  0.30320000  0.12630000  0.70000000  1.0
  C  C434  1  0.56000000  0.35750000  0.88730000  1.0
  C  C435  1  0.89080000  0.53970000  0.19550000  1.0
  C  C436  1  0.35940000  0.98760000  0.68140000  1.0
  C  C437  1  0.17230000  0.86400000  0.13850000  1.0
  C  C438  1  0.36230000  0.41640000  0.08790000  1.0
  C  C439  1  0.37860000  0.10130000  0.52990000  1.0
  C  C440  1  0.68350000  0.89680000  0.17360000  1.0
  C  C441  1  0.11320000  0.13700000  0.42480000  1.0
  C  C442  1  0.83210000  0.45170000  0.15790000  1.0
  C  C443  1  0.12720000  0.75280000  0.25900000  1.0
  C  C444  1  0.43200000  0.63330000  0.45740000  1.0
  C  C445  1  0.23640000  0.03250000  0.24260000  1.0
  C  C446  1  0.73280000  0.26230000  0.72440000  1.0
  C  C447  1  0.10920000  0.14820000  0.34670000  1.0
  C  C448  1  0.29480000  0.58830000  0.25810000  1.0
  C  C449  1  0.76360000  0.96750000  0.74260000  1.0
  C  C450  1  0.83240000  0.02430000  0.66130000  1.0
  C  C451  1  0.71880000  0.85030000  0.22090000  1.0
  C  C452  1  0.87170000  0.59300000  0.22450000  1.0
  C  C453  1  0.35960000  0.55900000  0.19970000  1.0
  C  C454  1  0.37170000  0.90700000  0.72450000  1.0
  C  C455  1  0.69000000  0.59930000  0.69940000  1.0
  C  C456  1  0.32860000  0.93710000  0.71010000  1.0
  C  C457  1  0.67230000  0.63600000  0.63850000  1.0
  C  C458  1  0.94000000  0.85750000  0.88730000  1.0
  C  C459  1  0.13770000  0.91640000  0.08790000  1.0
  C  C460  1  0.29960000  0.67920000  0.77180000  1.0
  C  C461  1  0.87860000  0.39870000  0.02990000  1.0
  C  C462  1  0.42780000  0.13630000  0.41350000  1.0
  C  C463  1  0.34510000  0.42180000  0.12710000  1.0
  C  C464  1  0.85940000  0.51240000  0.18140000  1.0
  C  C465  1  0.14140000  0.82780000  0.08030000  1.0
  C  C466  1  0.31630000  0.33940000  0.16380000  1.0
  C  C467  1  0.34260000  0.05470000  0.61720000  1.0
  C  C468  1  0.86700000  0.11310000  0.57230000  1.0
  C  C469  1  0.62720000  0.74720000  0.75900000  1.0
  C  C470  1  0.68370000  0.66060000  0.66380000  1.0
  C  C471  1  0.62490000  0.55500000  0.56010000  1.0
  C  C472  1  0.52570000  0.92580000  0.71580000  1.0
  C  C473  1  0.84510000  0.07820000  0.62710000  1.0
  C  C474  1  0.81630000  0.16060000  0.66380000  1.0
  C  C475  1  0.64990000  0.63920000  0.59710000  1.0
  C  C476  1  0.14990000  0.86080000  0.09710000  1.0
  C  C477  1  0.45160000  0.14880000  0.37240000  1.0
  C  C478  1  0.93200000  0.86670000  0.95740000  1.0
  C  C479  1  0.37510000  0.44500000  0.06010000  1.0
  C  C480  1  0.24390000  0.17810000  0.73970000  1.0
  C  C481  1  0.36480000  0.09320000  0.56340000  1.0
  C  C482  1  0.53280000  0.63140000  0.46030000  1.0
  C  C483  1  0.44000000  0.64250000  0.38730000  1.0
  C  C484  1  0.13300000  0.88690000  0.07230000  1.0
  C  C485  1  0.61320000  0.36300000  0.92480000  1.0
  C  C486  1  0.74390000  0.32190000  0.23970000  1.0
  C  C487  1  0.39080000  0.96030000  0.69550000  1.0
  C  C488  1  0.03280000  0.86860000  0.96030000  1.0
  C  C489  1  0.70190000  0.93620000  0.22870000  1.0
  C  C490  1  0.79810000  0.43620000  0.22870000  1.0
  C  C491  1  0.46140000  0.35870000  0.89070000  1.0
  C  C492  1  0.08060000  0.87590000  0.99750000  1.0
  C  C493  1  0.70040000  0.32080000  0.27180000  1.0
  C  C494  1  0.26360000  0.53250000  0.24260000  1.0
  C  C495  1  0.39220000  0.38050000  0.03030000  1.0
  C  C496  1  0.29810000  0.06380000  0.72870000  1.0
  C  C497  1  0.67370000  0.49360000  0.68670000  1.0
  C  C498  1  0.13520000  0.59320000  0.56340000  1.0
  C  C499  1  0.34500000  0.08660000  0.60380000  1.0
  C  C500  1  0.65760000  0.26570000  0.26460000  1.0
  C  C501  1  0.86230000  0.08360000  0.58790000  1.0
  C  C502  1  0.37270000  0.28120000  0.23970000  1.0
  C  C503  1  0.31650000  0.10320000  0.67360000  1.0
  C  C504  1  0.15740000  0.55470000  0.61720000  1.0
  C  C505  1  0.15300000  0.20550000  0.78830000  1.0
  C  C506  1  0.85960000  0.94100000  0.69970000  1.0
  C  C507  1  0.20520000  0.08830000  0.25810000  1.0
  C  C508  1  0.87210000  0.96840000  0.67740000  1.0
  C  C509  1  0.13120000  0.61010000  0.41900000  1.0
  C  C510  1  0.35010000  0.36080000  0.09710000  1.0
  C  C511  1  0.63300000  0.61310000  0.57230000  1.0
  C  C512  1  0.98880000  0.54420000  0.19750000  1.0
  C  C513  1  0.95160000  0.35120000  0.87240000  1.0
  C  C514  1  0.19680000  0.62630000  0.70000000  1.0
  C  C515  1  0.34200000  0.01430000  0.67060000  1.0
  C  C516  1  0.84500000  0.41340000  0.10380000  1.0
  C  C517  1  0.56800000  0.36670000  0.95740000  1.0
  C  C518  1  0.28120000  0.14970000  0.72090000  1.0
  C  C519  1  0.83770000  0.04810000  0.64450000  1.0
  C  C520  1  0.64040000  0.44100000  0.69970000  1.0
  C  C521  1  0.12490000  0.94500000  0.06010000  1.0
  C  C522  1  0.63520000  0.90680000  0.06340000  1.0
  C  C523  1  0.69290000  0.68450000  0.68590000  1.0
  C  C524  1  0.26790000  0.76450000  0.20330000  1.0
  C  C525  1  0.47040000  0.15220000  0.44650000  1.0
  C  C526  1  0.76720000  0.76230000  0.72440000  1.0
  C  C527  1  0.25610000  0.67810000  0.73970000  1.0
  C  C528  1  0.35700000  0.09920000  0.45730000  1.0
  C  C529  1  0.04840000  0.64880000  0.37240000  1.0
  C  C530  1  0.65490000  0.57820000  0.62710000  1.0
  C  C531  1  0.65330000  0.85470000  0.11890000  1.0
  C  C532  1  0.35860000  0.32780000  0.08030000  1.0
  C  C533  1  0.30060000  0.28790000  0.20940000  1.0
  C  C534  1  0.16760000  0.97570000  0.16130000  1.0
  C  C535  1  0.02570000  0.57420000  0.21580000  1.0
  C  C536  1  0.24480000  0.70730000  0.71930000  1.0
  C  C537  1  0.68670000  0.92950000  0.18520000  1.0
  C  C538  1  0.92780000  0.36370000  0.91350000  1.0
  C  C539  1  0.60380000  0.88700000  0.98950000  1.0
  C  C540  1  0.66790000  0.95170000  0.15790000  1.0
  C  C541  1  0.06800000  0.13330000  0.45740000  1.0
  C  C542  1  0.36700000  0.38690000  0.07230000  1.0
  C  C543  1  0.64060000  0.01240000  0.18140000  1.0
  C  C544  1  0.20190000  0.56380000  0.72870000  1.0
  C  C545  1  0.19000000  0.90070000  0.19940000  1.0
  C  C546  1  0.80060000  0.21210000  0.70940000  1.0
  C  C547  1  0.67140000  0.06290000  0.21010000  1.0
  C  C548  1  0.44780000  0.14060000  0.48460000  1.0
  C  C549  1  0.91940000  0.12410000  0.49750000  1.0
  C  C550  1  0.15490000  0.92180000  0.12710000  1.0
  C  C551  1  0.48880000  0.95580000  0.69750000  1.0
  C  C552  1  0.12140000  0.60130000  0.52990000  1.0
  C  C553  1  0.60920000  0.35180000  0.84670000  1.0
  C  C554  1  0.07220000  0.63630000  0.41350000  1.0
  C  C555  1  0.12730000  0.78120000  0.23970000  1.0
  C  C556  1  0.39010000  0.76320000  0.77920000  1.0
  C  C557  1  0.27870000  0.50580000  0.22440000  1.0
  C  C558  1  0.15800000  0.51430000  0.67060000  1.0
  C  C559  1  0.03600000  0.40260000  0.72860000  1.0
  C  C560  1  0.01120000  0.45580000  0.69750000  1.0
  C  C561  1  0.14300000  0.59920000  0.45730000  1.0
  C  C562  1  0.46400000  0.90260000  0.72860000  1.0
  C  C563  1  0.66230000  0.54810000  0.64450000  1.0
  C  C564  1  0.35030000  0.02780000  0.58510000  1.0
  C  C565  1  0.16790000  0.54830000  0.65790000  1.0
  C  C566  1  0.21280000  0.23260000  0.73000000  1.0
  C  C567  1  0.14040000  0.05900000  0.19970000  1.0
  C  C568  1  0.87270000  0.21880000  0.73970000  1.0
  C  C569  1  0.20040000  0.17920000  0.77180000  1.0
  C  C570  1  0.17370000  0.00640000  0.18670000  1.0
  C  C571  1  0.65500000  0.91340000  0.10380000  1.0
  C  C572  1  0.84200000  0.48570000  0.17060000  1.0
  C  C573  1  0.33210000  0.04830000  0.65790000  1.0
  C  C574  1  0.67490000  0.60470000  0.65380000  1.0
  C  C575  1  0.10780000  0.88050000  0.03030000  1.0
  C  C576  1  0.39620000  0.11300000  0.48950000  1.0
  C  C577  1  0.22130000  0.00580000  0.22440000  1.0
  C  C578  1  0.37280000  0.25280000  0.25900000  1.0
  C  C579  1  0.96140000  0.14130000  0.39070000  1.0
  C  C580  1  0.03860000  0.85870000  0.89070000  1.0
  C  C581  1  0.15330000  0.64530000  0.61890000  1.0
  C  C582  1  0.19290000  0.81550000  0.18590000  1.0
  C  C583  1  0.17490000  0.89530000  0.15380000  1.0
  C  C584  1  0.60780000  0.61950000  0.53030000  1.0
  C  C585  1  0.62790000  0.46840000  0.67740000  1.0
  C  C586  1  0.77870000  0.99420000  0.72440000  1.0
  C  C587  1  0.60920000  0.03970000  0.19550000  1.0
  C  C588  1  0.53860000  0.64130000  0.39070000  1.0
  C  C589  1  0.21880000  0.64970000  0.72090000  1.0
  C  C590  1  0.88680000  0.86300000  0.92480000  1.0
  C  C591  1  0.69940000  0.71210000  0.70940000  1.0
  C  C592  1  0.62830000  0.09300000  0.22450000  1.0
  C  C593  1  0.64140000  0.67220000  0.58030000  1.0
  C  C594  1  0.02960000  0.65220000  0.44650000  1.0
  C  C595  1  0.46720000  0.36860000  0.96030000  1.0
  C  C596  1  0.89010000  0.73680000  0.27920000  1.0
  C  C597  1  0.63120000  0.88990000  0.91900000  1.0
  C  C598  1  0.85860000  0.17220000  0.58030000  1.0
  C  C599  1  0.31000000  0.40070000  0.19940000  1.0
  C  C600  1  0.89620000  0.38700000  0.98950000  1.0
  C  C601  1  0.84670000  0.35470000  0.11890000  1.0
  C  C602  1  0.64970000  0.97220000  0.08510000  1.0
  C  C603  1  0.30710000  0.31550000  0.18590000  1.0
  C  C604  1  0.00810000  0.62530000  0.24980000  1.0
  C  C605  1  0.65300000  0.29450000  0.28830000  1.0
  C  C606  1  0.34670000  0.14530000  0.61890000  1.0
  C  C607  1  0.65740000  0.94530000  0.11720000  1.0
  C  C608  1  0.10990000  0.26320000  0.77920000  1.0
  C  C609  1  0.78720000  0.76740000  0.23000000  1.0
  C  C610  1  0.80710000  0.18450000  0.68590000  1.0
  C  C611  1  0.81650000  0.39680000  0.17360000  1.0
  C  C612  1  0.80160000  0.26840000  0.75170000  1.0
  C  C613  1  0.80560000  0.29910000  0.77090000  1.0
  C  C614  1  0.62730000  0.71880000  0.73970000  1.0
  C  C615  1  0.34700000  0.70550000  0.78830000  1.0
  C  C616  1  0.73640000  0.46750000  0.74260000  1.0
  C  C617  1  0.87510000  0.05500000  0.56010000  1.0
  C  C618  1  0.08320000  0.86410000  0.92570000  1.0
  C  C619  1  0.06000000  0.14250000  0.38730000  1.0
  C  C620  1  0.82860000  0.56290000  0.21010000  1.0
  C  C621  1  0.12790000  0.03160000  0.17740000  1.0
  C  C622  1  0.37210000  0.53160000  0.17740000  1.0
  C  C623  1  0.91680000  0.13590000  0.42570000  1.0
  C  C624  1  0.78120000  0.35030000  0.22090000  1.0
  C  C625  1  0.32770000  0.36400000  0.13850000  1.0
  C  C626  1  0.51120000  0.04420000  0.19750000  1.0
  C  C627  1  0.85010000  0.13920000  0.59710000  1.0
  C  C628  1  0.84260000  0.44530000  0.11720000  1.0
  C  C629  1  0.89220000  0.11950000  0.53030000  1.0
  C  C630  1  0.60990000  0.23680000  0.27920000  1.0
  C  C631  1  0.47430000  0.07420000  0.21580000  1.0
  C  C632  1  0.17140000  0.43710000  0.71010000  1.0
  C  C633  1  0.19840000  0.73160000  0.25170000  1.0
  C  C634  1  0.15760000  0.23430000  0.76460000  1.0
  C  C635  1  0.62140000  0.89870000  0.02990000  1.0
  C  C636  1  0.75610000  0.82190000  0.23970000  1.0
  C  C637  1  0.89080000  0.85180000  0.84670000  1.0
  C  C638  1  0.58060000  0.62410000  0.49750000  1.0
  C  C639  1  0.33770000  0.10970000  0.63200000  1.0
  C  C640  1  0.15500000  0.58660000  0.60380000  1.0
  C  C641  1  0.10920000  0.46030000  0.69550000  1.0
  C  C642  1  0.81330000  0.42950000  0.18520000  1.0
  C  C643  1  0.64300000  0.90080000  0.95730000  1.0
  C  C644  1  0.92470000  0.87600000  0.15340000  1.0
  C  C645  1  0.44730000  0.94910000  0.21480000  1.0
  C  C646  1  0.75060000  0.75770000  0.00510000  1.0
  C  C647  1  0.11780000  0.21880000  0.54010000  1.0
  C  C648  1  0.08310000  0.42460000  0.14720000  1.0
  C  C649  1  0.35290000  0.72730000  0.03620000  1.0
  C  C650  1  0.99090000  0.64640000  0.84520000  1.0
  C  C651  1  0.71620000  0.78720000  0.00070000  1.0
  C  C652  1  0.27730000  0.04390000  0.05950000  1.0
  C  C653  1  0.55270000  0.05090000  0.71480000  1.0
  C  C654  1  0.91690000  0.57540000  0.64720000  1.0
  C  C655  1  0.68120000  0.87470000  0.36320000  1.0
  C  C656  1  0.85010000  0.80250000  0.51660000  1.0
  C  C657  1  0.50020000  0.87800000  0.27870000  1.0
  C  C658  1  0.93500000  0.84070000  0.16570000  1.0
  C  C659  1  0.98510000  0.93120000  0.55830000  1.0
  C  C660  1  0.43240000  0.60040000  0.68230000  1.0
  C  C661  1  0.49090000  0.85360000  0.34520000  1.0
  C  C662  1  0.81880000  0.37470000  0.36320000  1.0
  C  C663  1  0.96330000  0.34660000  0.38080000  1.0
  C  C664  1  0.00500000  0.86430000  0.37940000  1.0
  C  C665  1  0.33060000  0.14920000  0.92930000  1.0
  C  C666  1  0.43500000  0.65930000  0.66570000  1.0
  C  C667  1  0.66940000  0.85080000  0.42930000  1.0
  C  C668  1  0.41180000  0.61670000  0.61160000  1.0
  C  C669  1  0.41830000  0.47070000  0.58840000  1.0
  C  C670  1  0.40560000  0.84010000  0.11370000  1.0
  C  C671  1  0.28380000  0.21280000  0.50070000  1.0
  C  C672  1  0.11600000  0.51060000  0.09630000  1.0
  C  C673  1  0.93450000  0.08770000  0.05630000  1.0
  C  C674  1  0.54120000  0.87140000  0.31710000  1.0
  C  C675  1  0.58990000  0.47050000  0.11720000  1.0
  C  C676  1  0.05950000  0.36360000  0.17960000  1.0
  C  C677  1  0.69910000  0.98540000  0.57590000  1.0
  C  C678  1  0.40350000  0.98170000  0.11770000  1.0
  C  C679  1  0.43560000  0.54220000  0.70170000  1.0
  C  C680  1  0.03670000  0.65340000  0.88080000  1.0
  C  C681  1  0.87210000  0.35770000  0.39030000  1.0
  C  C682  1  0.91830000  0.02930000  0.08840000  1.0
  C  C683  1  0.55660000  0.65250000  0.84970000  1.0
  C  C684  1  0.68180000  0.23470000  0.58780000  1.0
  C  C685  1  0.41690000  0.92460000  0.14720000  1.0
  C  C686  1  0.62790000  0.85770000  0.39030000  1.0
  C  C687  1  0.91180000  0.88330000  0.11160000  1.0
  C  C688  1  0.05410000  0.53610000  0.09680000  1.0
  C  C689  1  0.62690000  0.33650000  0.06170000  1.0
  C  C690  1  0.58820000  0.38330000  0.11160000  1.0
  C  C691  1  0.60800000  0.09870000  0.57780000  1.0
  C  C692  1  0.31820000  0.76530000  0.08780000  1.0
  C  C693  1  0.57530000  0.37600000  0.15340000  1.0
  C  C694  1  0.48350000  0.62060000  0.80040000  1.0
  C  C695  1  0.74940000  0.25770000  0.00510000  1.0
  C  C696  1  0.94050000  0.63640000  0.67960000  1.0
  C  C697  1  0.42500000  0.78040000  0.03690000  1.0
  C  C698  1  0.90970000  0.93830000  0.12930000  1.0
  C  C699  1  0.38220000  0.71880000  0.54010000  1.0
  C  C700  1  0.38400000  0.01060000  0.09630000  1.0
  C  C701  1  0.07360000  0.06910000  0.67110000  1.0
  C  C702  1  0.96120000  0.88460000  0.25430000  1.0
  C  C703  1  0.83060000  0.35080000  0.42930000  1.0
  C  C704  1  0.90990000  0.54460000  0.63110000  1.0
  C  C705  1  0.65470000  0.93130000  0.56030000  1.0
  C  C706  1  0.66060000  0.31070000  0.04030000  1.0
  C  C707  1  0.92380000  0.43610000  0.57620000  1.0
  C  C708  1  0.17950000  0.59860000  0.03810000  1.0
  C  C709  1  0.82050000  0.40140000  0.53810000  1.0
  C  C710  1  0.00910000  0.35360000  0.34520000  1.0
  C  C711  1  0.44050000  0.86360000  0.17960000  1.0
  C  C712  1  0.44970000  0.60740000  0.72140000  1.0
  C  C713  1  0.32050000  0.09860000  0.03810000  1.0
  C  C714  1  0.90910000  0.99700000  0.10700000  1.0
  C  C715  1  0.53670000  0.84660000  0.38080000  1.0
  C  C716  1  0.04930000  0.85610000  0.30960000  1.0
  C  C717  1  0.85290000  0.77270000  0.53620000  1.0
  C  C718  1  0.91010000  0.97050000  0.11720000  1.0
  C  C719  1  0.55030000  0.39260000  0.22140000  1.0
  C  C720  1  0.59010000  0.04460000  0.63110000  1.0
  C  C721  1  0.72270000  0.95610000  0.55950000  1.0
  C  C722  1  0.80520000  0.76410000  0.57030000  1.0
  C  C723  1  0.93560000  0.95780000  0.20170000  1.0
  C  C724  1  0.34530000  0.06870000  0.06030000  1.0
  C  C725  1  0.08840000  0.39880000  0.12230000  1.0
  C  C726  1  0.69480000  0.26410000  0.57030000  1.0
  C  C727  1  0.13340000  0.61920000  0.82480000  1.0
  C  C728  1  0.69440000  0.72930000  0.99680000  1.0
  C  C729  1  0.58520000  0.24730000  0.51850000  1.0
  C  C730  1  0.33460000  0.74580000  0.52230000  1.0
  C  C731  1  0.39100000  0.64180000  0.58520000  1.0
  C  C732  1  0.57860000  0.13250000  0.63940000  1.0
  C  C733  1  0.94190000  0.58000000  0.68700000  1.0
  C  C734  1  0.38010000  0.78720000  0.07410000  1.0
  C  C735  1  0.19440000  0.77070000  0.49680000  1.0
  C  C736  1  0.58310000  0.07540000  0.64720000  1.0
  C  C737  1  0.83940000  0.81070000  0.04030000  1.0
  C  C738  1  0.94590000  0.46390000  0.59680000  1.0
  C  C739  1  0.09030000  0.06170000  0.62930000  1.0
  C  C740  1  0.40990000  0.95540000  0.13110000  1.0
  C  C741  1  0.92140000  0.63250000  0.63940000  1.0
  C  C742  1  0.19910000  0.51460000  0.07590000  1.0
  C  C743  1  0.80560000  0.22930000  0.99680000  1.0
  C  C744  1  0.06550000  0.91230000  0.55630000  1.0
  C  C745  1  0.21620000  0.71280000  0.50070000  1.0
  C  C746  1  0.54930000  0.64390000  0.80960000  1.0
  C  C747  1  0.07620000  0.56390000  0.07620000  1.0
  C  C748  1  0.94340000  0.15250000  0.84970000  1.0
  C  C749  1  0.95170000  0.61080000  0.70350000  1.0
  C  C750  1  0.81820000  0.73470000  0.58780000  1.0
  C  C751  1  0.47480000  0.88580000  0.24560000  1.0
  C  C752  1  0.42470000  0.62400000  0.65340000  1.0
  C  C753  1  0.41480000  0.75270000  0.01850000  1.0
  C  C754  1  0.07500000  0.28040000  0.03690000  1.0
  C  C755  1  0.16940000  0.64920000  0.92930000  1.0
  C  C756  1  0.64840000  0.57970000  0.07620000  1.0
  C  C757  1  0.88890000  0.68370000  0.59430000  1.0
  C  C758  1  0.84530000  0.43130000  0.56030000  1.0
  C  C759  1  0.05660000  0.84750000  0.34970000  1.0
  C  C760  1  0.42380000  0.06390000  0.07620000  1.0
  C  C761  1  0.04120000  0.62860000  0.81710000  1.0
  C  C762  1  0.41010000  0.52950000  0.61720000  1.0
  C  C763  1  0.55300000  0.38810000  0.36820000  1.0
  C  C764  1  0.61720000  0.42150000  0.05720000  1.0
  C  C765  1  0.55410000  0.96390000  0.59680000  1.0
  C  C766  1  0.61600000  0.98940000  0.59630000  1.0
  C  C767  1  0.44190000  0.92000000  0.18700000  1.0
  C  C768  1  0.89850000  0.91360000  0.09960000  1.0
  C  C769  1  0.50910000  0.14640000  0.84520000  1.0
  C  C770  1  0.95480000  0.66820000  0.69530000  1.0
  C  C771  1  0.14840000  0.92030000  0.57620000  1.0
  C  C772  1  0.59030000  0.43830000  0.12930000  1.0
  C  C773  1  0.58170000  0.52930000  0.08840000  1.0
  C  C774  1  0.00370000  0.03950000  0.07480000  1.0
  C  C775  1  0.49980000  0.12200000  0.77870000  1.0
  C  C776  1  0.56550000  0.58770000  0.05630000  1.0
  C  C777  1  0.40910000  0.50300000  0.60700000  1.0
  C  C778  1  0.63340000  0.88080000  0.32480000  1.0
  C  C779  1  0.61990000  0.21280000  0.57410000  1.0
  C  C780  1  0.61110000  0.18370000  0.59430000  1.0
  C  C781  1  0.55650000  0.62250000  0.03550000  1.0
  C  C782  1  0.42140000  0.86750000  0.13940000  1.0
  C  C783  1  0.83660000  0.05240000  0.09650000  1.0
  C  C784  1  0.66540000  0.25420000  0.02230000  1.0
  C  C785  1  0.30560000  0.27070000  0.49680000  1.0
  C  C786  1  0.05270000  0.44910000  0.21480000  1.0
  C  C787  1  0.56500000  0.34070000  0.16570000  1.0
  C  C788  1  0.44350000  0.37750000  0.53550000  1.0
  C  C789  1  0.60150000  0.41360000  0.09960000  1.0
  C  C790  1  0.90560000  0.65990000  0.61370000  1.0
  C  C791  1  0.54830000  0.11080000  0.70350000  1.0
  C  C792  1  0.54520000  0.16820000  0.69530000  1.0
  C  C793  1  0.51280000  0.64480000  0.92680000  1.0
  C  C794  1  0.49630000  0.53950000  0.07480000  1.0
  C  C795  1  0.18180000  0.26530000  0.08780000  1.0
  C  C796  1  0.51490000  0.43120000  0.55830000  1.0
  C  C797  1  0.75830000  0.81360000  0.01870000  1.0
  C  C798  1  0.08820000  0.11670000  0.61160000  1.0
  C  C799  1  0.22270000  0.54390000  0.05950000  1.0
  C  C800  1  0.83460000  0.75420000  0.02230000  1.0
  C  C801  1  0.56700000  0.39480000  0.32810000  1.0
  C  C802  1  0.46330000  0.15340000  0.88080000  1.0
  C  C803  1  0.94730000  0.55090000  0.71480000  1.0
  C  C804  1  0.88280000  0.92150000  0.05720000  1.0
  C  C805  1  0.16340000  0.94760000  0.59650000  1.0
  C  C806  1  0.01650000  0.12060000  0.80040000  1.0
  C  C807  1  0.98350000  0.87940000  0.30040000  1.0
  C  C808  1  0.14710000  0.22730000  0.03620000  1.0
  C  C809  1  0.80090000  0.48540000  0.57590000  1.0
  C  C810  1  0.35160000  0.42030000  0.57620000  1.0
  C  C811  1  0.50370000  0.46050000  0.57480000  1.0
  C  C812  1  0.25830000  0.68640000  0.51870000  1.0
  C  C813  1  0.11720000  0.07850000  0.55720000  1.0
  C  C814  1  0.03880000  0.11540000  0.75430000  1.0
  C  C815  1  0.04830000  0.38920000  0.20350000  1.0
  C  C816  1  0.24170000  0.18640000  0.51870000  1.0
  C  C817  1  0.64990000  0.30250000  0.51660000  1.0
  C  C818  1  0.05810000  0.42000000  0.18700000  1.0
  C  C819  1  0.33660000  0.44760000  0.59650000  1.0
  C  C820  1  0.00020000  0.62200000  0.77870000  1.0
  C  C821  1  0.11110000  0.31630000  0.09430000  1.0
  C  C822  1  0.55810000  0.08000000  0.68700000  1.0
  C  C823  1  0.46120000  0.61540000  0.75430000  1.0
  C  C824  1  0.98720000  0.14480000  0.92680000  1.0
  C  C825  1  0.39850000  0.58640000  0.59960000  1.0
  C  C826  1  0.89100000  0.85820000  0.08520000  1.0
  C  C827  1  0.60900000  0.35820000  0.08520000  1.0
  C  C828  1  0.04520000  0.33180000  0.19530000  1.0
  C  C829  1  0.45880000  0.12860000  0.81710000  1.0
  C  C830  1  0.57500000  0.21960000  0.53690000  1.0
  C  C831  1  0.45480000  0.83180000  0.19530000  1.0
  C  C832  1  0.45170000  0.88920000  0.20350000  1.0
  C  C833  1  0.57360000  0.43090000  0.17110000  1.0
  C  C834  1  0.09440000  0.34010000  0.11370000  1.0
  C  C835  1  0.42640000  0.56910000  0.67110000  1.0
  C  C836  1  0.12690000  0.16350000  0.56170000  1.0
  C  C837  1  0.74170000  0.31360000  0.01870000  1.0
  C  C838  1  0.92500000  0.71960000  0.53690000  1.0
  C  C839  1  0.52520000  0.11420000  0.74560000  1.0
  C  C840  1  0.55950000  0.13640000  0.67960000  1.0
  C  C841  1  0.08170000  0.97070000  0.58840000  1.0
  C  C842  1  0.56760000  0.39960000  0.18230000  1.0
  C  C843  1  0.16540000  0.24580000  0.52230000  1.0
  C  C844  1  0.06500000  0.15930000  0.66570000  1.0
  C  C845  1  0.85160000  0.07970000  0.07620000  1.0
  C  C846  1  0.35010000  0.69750000  0.01660000  1.0
  C  C847  1  0.44590000  0.03610000  0.09680000  1.0
  C  C848  1  0.90350000  0.51830000  0.61770000  1.0
  C  C849  1  0.07530000  0.12400000  0.65340000  1.0
  C  C850  1  0.51650000  0.37940000  0.30040000  1.0
  C  C851  1  0.08520000  0.25270000  0.01850000  1.0
  C  C852  1  0.10900000  0.14180000  0.58520000  1.0
  C  C853  1  0.43300000  0.60520000  0.82810000  1.0
  C  C854  1  0.01490000  0.06880000  0.05830000  1.0
  C  C855  1  0.02520000  0.38580000  0.24560000  1.0
  C  C856  1  0.93300000  0.89480000  0.32810000  1.0
  C  C857  1  0.01280000  0.85520000  0.42680000  1.0
  C  C858  1  0.09650000  0.48170000  0.11770000  1.0
  C  C859  1  0.05650000  0.87750000  0.53550000  1.0
  C  C860  1  0.88010000  0.71280000  0.57410000  1.0
  C  C861  1  0.48510000  0.56880000  0.05830000  1.0
  C  C862  1  0.44700000  0.61190000  0.86820000  1.0
  C  C863  1  0.09090000  0.00300000  0.60700000  1.0
  C  C864  1  0.66340000  0.55240000  0.09650000  1.0
  C  C865  1  0.40970000  0.56170000  0.62930000  1.0
  C  C866  1  0.31880000  0.12530000  0.86320000  1.0
  C  C867  1  0.11990000  0.28720000  0.07410000  1.0
  C  C868  1  0.30090000  0.01460000  0.07590000  1.0
  C  C869  1  0.56440000  0.45780000  0.20170000  1.0
  C  C870  1  0.94350000  0.12250000  0.03550000  1.0
  C  C871  1  0.53880000  0.38460000  0.25430000  1.0
  C  C872  1  0.88220000  0.78120000  0.04010000  1.0
  C  C873  1  0.05030000  0.10740000  0.72140000  1.0
  C  C874  1  0.94700000  0.88810000  0.36820000  1.0
  C  C875  1  0.38890000  0.81630000  0.09430000  1.0
  C  C876  1  0.89200000  0.59870000  0.57780000  1.0
  C  C877  1  0.38280000  0.57850000  0.55720000  1.0
  C  C878  1  0.33940000  0.68930000  0.54030000  1.0
  C  C879  1  0.87310000  0.83650000  0.06170000  1.0
  C  C880  1  0.37210000  0.14230000  0.89030000  1.0
  C  C881  1  0.77730000  0.45610000  0.55950000  1.0
  C  C882  1  0.30520000  0.73590000  0.07030000  1.0
  C  C883  1  0.92640000  0.93090000  0.17110000  1.0
  C  C884  1  0.06700000  0.10520000  0.82810000  1.0
  C  C885  1  0.19480000  0.23590000  0.07030000  1.0
  C  C886  1  0.44340000  0.34750000  0.34970000  1.0
  C  C887  1  0.64710000  0.27270000  0.53620000  1.0
  C  C888  1  0.15470000  0.56870000  0.06030000  1.0
  C  C889  1  0.59650000  0.01830000  0.61770000  1.0
  C  C890  1  0.99980000  0.37800000  0.27870000  1.0
  C  C891  1  0.95880000  0.37140000  0.31710000  1.0
  C  C892  1  0.09010000  0.45540000  0.13110000  1.0
  C  C893  1  0.49500000  0.36430000  0.37940000  1.0
  C  C894  1  0.97480000  0.61420000  0.74560000  1.0
  C  C895  1  0.86660000  0.38080000  0.32480000  1.0
  C  C896  1  0.39200000  0.90130000  0.07780000  1.0
  C  C897  1  0.91480000  0.74730000  0.51850000  1.0
  C  C898  1  0.37310000  0.66350000  0.56170000  1.0
  C  C899  1  0.58840000  0.10120000  0.62230000  1.0
  C  C900  1  0.67950000  0.90140000  0.53810000  1.0
  C  C901  1  0.94970000  0.89260000  0.22140000  1.0
  C  C902  1  0.16060000  0.18930000  0.54030000  1.0
  C  C903  1  0.24940000  0.24230000  0.50510000  1.0
  C  C904  1  0.57620000  0.93610000  0.57620000  1.0
  C  C905  1  0.48720000  0.35520000  0.42680000  1.0
  C  C906  1  0.88400000  0.48940000  0.59630000  1.0
  C  C907  1  0.10150000  0.08640000  0.59960000  1.0
  C  C908  1  0.95070000  0.14390000  0.80960000  1.0
  C  C909  1  0.91160000  0.60120000  0.62230000  1.0
  C  C910  1  0.12790000  0.64230000  0.89030000  1.0
  C  C911  1  0.45070000  0.35610000  0.30960000  1.0
  C  C912  1  0.93240000  0.89960000  0.18230000  1.0
  C  C913  1  0.99500000  0.13570000  0.87940000  1.0
  C  C914  1  0.99630000  0.96050000  0.57480000  1.0
  C  C915  1  0.14990000  0.19750000  0.01660000  1.0
  C  C916  1  0.06440000  0.04220000  0.70170000  1.0
  C  C917  1  0.18120000  0.62530000  0.86320000  1.0
  C  C918  1  0.59440000  0.15990000  0.61370000  1.0
  C  C919  1  0.25060000  0.74230000  0.50510000  1.0
  C  C920  1  0.10800000  0.40130000  0.07780000  1.0
  C  C921  1  0.61780000  0.28120000  0.04010000  1.0
  C  C922  1  0.59090000  0.49700000  0.10700000  1.0
  C  C923  1  0.50500000  0.63570000  0.87940000  1.0
  C  C924  1  0.05300000  0.11190000  0.86820000  1.0
  C  C925  1  0.07860000  0.36750000  0.13940000  1.0
  C  C926  1  0.08990000  0.02950000  0.61720000  1.0
  C  C927  1  0.41160000  0.89880000  0.12230000  1.0
  C  C928  1  0.06760000  0.10040000  0.68230000  1.0
  C  C929  1  0.43450000  0.41230000  0.55630000  1.0
  C  C930  1  0.36660000  0.11920000  0.82480000  1.0
  C  C931  1  0.78380000  0.28720000  0.00070000  1.0
  O  O932  1  0.94160000  0.64400000  0.26830000  1.0
  O  O933  1  0.69790000  0.35390000  0.84910000  1.0
  O  O934  1  0.60250000  0.21440000  0.25430000  1.0
  O  O935  1  0.93990000  0.84710000  0.81780000  1.0
  O  O936  1  0.56010000  0.34710000  0.81780000  1.0
  O  O937  1  0.39750000  0.78560000  0.75430000  1.0
  O  O938  1  0.75840000  0.81980000  0.76480000  1.0
  O  O939  1  0.74160000  0.31980000  0.76480000  1.0
  O  O940  1  0.05840000  0.35600000  0.76830000  1.0
  O  O941  1  0.12990000  0.69393000  0.29690000  1.0
  O  O942  1  0.92560000  0.36820000  0.84390000  1.0
  O  O943  1  0.44160000  0.85600000  0.76830000  1.0
  O  O944  1  0.59230000  0.87020000  0.74820000  1.0
  O  O945  1  0.09230000  0.62980000  0.24820000  1.0
  O  O946  1  0.00440000  0.67420000  0.36860000  1.0
  O  O947  1  0.19790000  0.14610000  0.34910000  1.0
  O  O948  1  0.43990000  0.65290000  0.31780000  1.0
  O  O949  1  0.37010000  0.19393000  0.29690000  1.0
  O  O950  1  0.49560000  0.17420000  0.36860000  1.0
  O  O951  1  0.57440000  0.86820000  0.84390000  1.0
  O  O952  1  0.24110000  0.58760000  0.28600000  1.0
  O  O953  1  0.24160000  0.18020000  0.26480000  1.0
  O  O954  1  0.42560000  0.13180000  0.34390000  1.0
  O  O955  1  0.65600000  0.38790000  0.74540000  1.0
  O  O956  1  0.89750000  0.71440000  0.25430000  1.0
  O  O957  1  0.42410000  0.76455000  0.81440000  1.0
  O  O958  1  0.06010000  0.15290000  0.31780000  1.0
  O  O959  1  0.84400000  0.88790000  0.74540000  1.0
  O  O960  1  0.75890000  0.41240000  0.78600000  1.0
  O  O961  1  0.90770000  0.37020000  0.74820000  1.0
  O  O962  1  0.25840000  0.68020000  0.26480000  1.0
  O  O963  1  0.15600000  0.11210000  0.24540000  1.0
  O  O964  1  0.10250000  0.28560000  0.75430000  1.0
  O  O965  1  0.40770000  0.12980000  0.24820000  1.0
  O  O966  1  0.80210000  0.85390000  0.84910000  1.0
  O  O967  1  0.34400000  0.61210000  0.24540000  1.0
  O  O968  1  0.87010000  0.30607000  0.79690000  1.0
  O  O969  1  0.55840000  0.14400000  0.26830000  1.0
  O  O970  1  0.57590000  0.23545000  0.31440000  1.0
  O  O971  1  0.30210000  0.64610000  0.34910000  1.0
  O  O972  1  0.07440000  0.63180000  0.34390000  1.0
  O  O973  1  0.25890000  0.08760000  0.28600000  1.0
  O  O974  1  0.07590000  0.26455000  0.81440000  1.0
  O  O975  1  0.62990000  0.80607000  0.79690000  1.0
  O  O976  1  0.74110000  0.91240000  0.78600000  1.0
  O  O977  1  0.99560000  0.32580000  0.86860000  1.0
  O  O978  1  0.50440000  0.82580000  0.86860000  1.0
  O  O979  1  0.92410000  0.73545000  0.31440000  1.0
  O  O980  1  0.25290000  0.63940000  0.93550000  1.0
  O  O981  1  0.93260000  0.16410000  0.93330000  1.0
  O  O982  1  0.56740000  0.66410000  0.93330000  1.0
  O  O983  1  0.75290000  0.86060000  0.43550000  1.0
  O  O984  1  0.37070000  0.36450000  0.52550000  1.0
  O  O985  1  0.73230000  0.70170000  0.99920000  1.0
  O  O986  1  0.62930000  0.63550000  0.02550000  1.0
  O  O987  1  0.24070000  0.09980000  0.02230000  1.0
  O  O988  1  0.12930000  0.86450000  0.52550000  1.0
  O  O989  1  0.61900000  0.83620000  0.45590000  1.0
  O  O990  1  0.97130000  0.87350000  0.44800000  1.0
  O  O991  1  0.61510000  0.73380000  0.97880000  1.0
  O  O992  1  0.88490000  0.23380000  0.97880000  1.0
  O  O993  1  0.59120000  0.31055000  0.49140000  1.0
  O  O994  1  0.74710000  0.36060000  0.43550000  1.0
  O  O995  1  0.62460000  0.87940000  0.54180000  1.0
  O  O996  1  0.26770000  0.29830000  0.49920000  1.0
  O  O997  1  0.47460000  0.63380000  0.03440000  1.0
  O  O998  1  0.43260000  0.33590000  0.43330000  1.0
  O  O999  1  0.21510000  0.17782000  0.02920000  1.0
  O  O1000  1  0.90880000  0.81055000  0.49140000  1.0
  O  O1001  1  0.76770000  0.20170000  0.99920000  1.0
  O  O1002  1  0.88100000  0.33620000  0.45590000  1.0
  O  O1003  1  0.38490000  0.26620000  0.47880000  1.0
  O  O1004  1  0.87540000  0.37940000  0.54180000  1.0
  O  O1005  1  0.02540000  0.13380000  0.03440000  1.0
  O  O1006  1  0.87070000  0.13550000  0.02550000  1.0
  O  O1007  1  0.71510000  0.32218000  0.52920000  1.0
  O  O1008  1  0.24710000  0.13940000  0.93550000  1.0
  O  O1009  1  0.28490000  0.67782000  0.02920000  1.0
  O  O1010  1  0.06740000  0.83590000  0.43330000  1.0
  O  O1011  1  0.02870000  0.12650000  0.94800000  1.0
  O  O1012  1  0.12460000  0.62060000  0.04180000  1.0
  O  O1013  1  0.25930000  0.59980000  0.02230000  1.0
  O  O1014  1  0.78490000  0.82218000  0.52920000  1.0
  O  O1015  1  0.11510000  0.76620000  0.47880000  1.0
  O  O1016  1  0.52540000  0.36620000  0.53440000  1.0
  O  O1017  1  0.75930000  0.90020000  0.52230000  1.0
  O  O1018  1  0.74070000  0.40020000  0.52230000  1.0
  O  O1019  1  0.97460000  0.86620000  0.53440000  1.0
  O  O1020  1  0.47130000  0.62650000  0.94800000  1.0
  O  O1021  1  0.52870000  0.37350000  0.44800000  1.0
  O  O1022  1  0.11900000  0.66380000  0.95590000  1.0
  O  O1023  1  0.38100000  0.16380000  0.95590000  1.0
  O  O1024  1  0.09120000  0.18945000  0.99140000  1.0
  O  O1025  1  0.40880000  0.68945000  0.99140000  1.0
  O  O1026  1  0.37540000  0.12060000  0.04180000  1.0
  O  O1027  1  0.23230000  0.79830000  0.49920000  1.0
