# generated using pymatgen
data_AgH6C5N2
_symmetry_space_group_name_H-M   'P 1'
_cell_length_a   45.83210000
_cell_length_b   45.83210000
_cell_length_c   45.83210000
_cell_angle_alpha   94.82590000
_cell_angle_beta   94.82590000
_cell_angle_gamma   146.27800000
_symmetry_Int_Tables_number   1
_chemical_formula_structural   AgH6C5N2
_chemical_formula_sum   'Ag240 H1440 C1200 N480'
_cell_volume   51150.28339219
_cell_formula_units_Z   240
loop_
 _symmetry_equiv_pos_site_id
 _symmetry_equiv_pos_as_xyz
  1  'x, y, z'
loop_
 _atom_site_type_symbol
 _atom_site_label
 _atom_site_symmetry_multiplicity
 _atom_site_fract_x
 _atom_site_fract_y
 _atom_site_fract_z
 _atom_site_occupancy
  Ag  Ag0  1  0.02293000  0.48265000  0.50532000  1.0
  Ag  Ag1  1  0.03375000  0.53835000  0.56679000  1.0
  Ag  Ag2  1  0.90644000  0.41496000  0.51764000  1.0
  Ag  Ag3  1  0.06778000  0.25711000  0.93323000  1.0
  Ag  Ag4  1  0.13435000  0.34713000  0.89328000  1.0
  Ag  Ag5  1  0.06641000  0.22609000  0.86068000  1.0
  Ag  Ag6  1  0.36004000  0.46295000  0.77067000  1.0
  Ag  Ag7  1  0.30744000  0.47895000  0.73731000  1.0
  Ag  Ag8  1  0.42065000  0.54431000  0.72020000  1.0
  Ag  Ag9  1  0.32578000  0.64869000  0.62021000  1.0
  Ag  Ag10  1  0.45328000  0.76059000  0.66677000  1.0
  Ag  Ag11  1  0.39824000  0.77588000  0.63582000  1.0
  Ag  Ag12  1  0.70672000  0.13187000  0.77513000  1.0
  Ag  Ag13  1  0.65105000  0.05645000  0.82442000  1.0
  Ag  Ag14  1  0.72579000  0.18359000  0.84546000  1.0
  Ag  Ag15  1  0.76704000  0.65168000  0.80280000  1.0
  Ag  Ag16  1  0.67001000  0.61064000  0.82027000  1.0
  Ag  Ag17  1  0.64370000  0.56034000  0.74698000  1.0
  Ag  Ag18  1  0.80959000  0.19877000  0.33564000  1.0
  Ag  Ag19  1  0.75476000  0.08827000  0.31039000  1.0
  Ag  Ag20  1  0.75702000  0.11696000  0.38424000  1.0
  Ag  Ag21  1  0.38671000  0.66573000  0.14964000  1.0
  Ag  Ag22  1  0.26433000  0.55760000  0.09631000  1.0
  Ag  Ag23  1  0.37058000  0.60759000  0.08343000  1.0
  Ag  Ag24  1  0.75891000  0.39237000  0.66404000  1.0
  Ag  Ag25  1  0.82068000  0.38796000  0.70246000  1.0
  Ag  Ag26  1  0.70831000  0.32349000  0.72016000  1.0
  Ag  Ag27  1  0.06505000  0.07062000  0.98685000  1.0
  Ag  Ag28  1  0.94380000  0.95449000  0.93609000  1.0
  Ag  Ag29  1  0.45106000  0.97085000  0.94589000  1.0
  Ag  Ag30  1  0.47733000  0.51761000  0.99468000  1.0
  Ag  Ag31  1  0.47157000  0.46696000  0.93321000  1.0
  Ag  Ag32  1  0.39732000  0.38880000  0.98236000  1.0
  Ag  Ag33  1  0.82388000  0.13455000  0.56677000  1.0
  Ag  Ag34  1  0.95385000  0.24107000  0.60672000  1.0
  Ag  Ag35  1  0.86541000  0.20573000  0.63932000  1.0
  Ag  Ag36  1  0.19228000  0.58937000  0.72933000  1.0
  Ag  Ag37  1  0.24164000  0.57013000  0.76269000  1.0
  Ag  Ag38  1  0.32411000  0.70045000  0.77980000  1.0
  Ag  Ag39  1  0.52848000  0.70557000  0.87979000  1.0
  Ag  Ag40  1  0.59382000  0.78651000  0.83323000  1.0
  Ag  Ag41  1  0.64006000  0.76242000  0.86418000  1.0
  Ag  Ag42  1  0.85674000  0.93159000  0.72487000  1.0
  Ag  Ag43  1  0.73203000  0.82663000  0.67558000  1.0
  Ag  Ag44  1  0.83813000  0.88033000  0.65454000  1.0
  Ag  Ag45  1  0.34888000  0.96424000  0.69720000  1.0
  Ag  Ag46  1  0.29037000  0.84974000  0.67973000  1.0
  Ag  Ag47  1  0.31336000  0.89672000  0.75302000  1.0
  Ag  Ag48  1  0.36313000  0.47395000  0.16436000  1.0
  Ag  Ag49  1  0.27788000  0.44437000  0.18961000  1.0
  Ag  Ag50  1  0.23272000  0.37278000  0.11576000  1.0
  Ag  Ag51  1  0.01609000  0.23707000  0.35036000  1.0
  Ag  Ag52  1  0.96129000  0.16802000  0.40369000  1.0
  Ag  Ag53  1  0.02416000  0.28715000  0.41657000  1.0
  Ag  Ag54  1  0.22833000  0.09487000  0.83596000  1.0
  Ag  Ag55  1  0.18550000  0.11822000  0.79754000  1.0
  Ag  Ag56  1  0.10333000  0.98815000  0.77984000  1.0
  Ag  Ag57  1  0.58377000  0.07820000  0.51315000  1.0
  Ag  Ag58  1  0.51840000  0.00771000  0.56391000  1.0
  Ag  Ag59  1  0.52496000  0.50517000  0.55411000  1.0
  Ag  Ag60  1  0.98265000  0.97733000  0.45972000  1.0
  Ag  Ag61  1  0.03836000  0.97157000  0.50460000  1.0
  Ag  Ag62  1  0.91496000  0.89732000  0.50852000  1.0
  Ag  Ag63  1  0.75711000  0.32388000  0.18933000  1.0
  Ag  Ag64  1  0.84713000  0.45385000  0.21278000  1.0
  Ag  Ag65  1  0.72609000  0.36541000  0.15968000  1.0
  Ag  Ag66  1  0.96295000  0.69228000  0.10291000  1.0
  Ag  Ag67  1  0.97895000  0.74164000  0.17151000  1.0
  Ag  Ag68  1  0.04431000  0.82411000  0.12366000  1.0
  Ag  Ag69  1  0.14869000  0.02848000  0.32291000  1.0
  Ag  Ag70  1  0.26059000  0.09382000  0.30731000  1.0
  Ag  Ag71  1  0.27588000  0.14006000  0.37764000  1.0
  Ag  Ag72  1  0.63187000  0.35674000  0.42515000  1.0
  Ag  Ag73  1  0.55645000  0.23203000  0.40540000  1.0
  Ag  Ag74  1  0.68359000  0.33813000  0.45780000  1.0
  Ag  Ag75  1  0.15168000  0.84888000  0.88464000  1.0
  Ag  Ag76  1  0.11064000  0.79037000  0.94063000  1.0
  Ag  Ag77  1  0.06034000  0.81336000  0.91664000  1.0
  Ag  Ag78  1  0.69877000  0.86313000  0.38918000  1.0
  Ag  Ag79  1  0.58827000  0.77788000  0.33351000  1.0
  Ag  Ag80  1  0.61696000  0.73272000  0.35994000  1.0
  Ag  Ag81  1  0.16573000  0.51609000  0.27902000  1.0
  Ag  Ag82  1  0.05760000  0.46129000  0.29327000  1.0
  Ag  Ag83  1  0.10759000  0.52416000  0.23701000  1.0
  Ag  Ag84  1  0.89237000  0.72833000  0.63346000  1.0
  Ag  Ag85  1  0.88796000  0.68550000  0.56728000  1.0
  Ag  Ag86  1  0.82349000  0.60333000  0.61518000  1.0
  Ag  Ag87  1  0.57062000  0.08377000  0.00557000  1.0
  Ag  Ag88  1  0.45449000  0.01840000  0.01069000  1.0
  Ag  Ag89  1  0.47085000  0.02496000  0.51979000  1.0
  Ag  Ag90  1  0.01761000  0.52293000  0.04028000  1.0
  Ag  Ag91  1  0.96696000  0.53375000  0.99540000  1.0
  Ag  Ag92  1  0.88880000  0.40644000  0.99148000  1.0
  Ag  Ag93  1  0.63455000  0.56778000  0.31067000  1.0
  Ag  Ag94  1  0.74107000  0.63435000  0.28722000  1.0
  Ag  Ag95  1  0.70573000  0.56641000  0.34032000  1.0
  Ag  Ag96  1  0.08937000  0.86004000  0.39709000  1.0
  Ag  Ag97  1  0.07013000  0.80744000  0.32849000  1.0
  Ag  Ag98  1  0.20045000  0.92065000  0.37634000  1.0
  Ag  Ag99  1  0.20557000  0.82578000  0.17709000  1.0
  Ag  Ag100  1  0.28651000  0.95328000  0.19269000  1.0
  Ag  Ag101  1  0.26242000  0.89824000  0.12236000  1.0
  Ag  Ag102  1  0.43159000  0.20672000  0.07485000  1.0
  Ag  Ag103  1  0.32663000  0.15105000  0.09460000  1.0
  Ag  Ag104  1  0.38033000  0.22579000  0.04220000  1.0
  Ag  Ag105  1  0.46424000  0.26704000  0.61536000  1.0
  Ag  Ag106  1  0.34974000  0.17001000  0.55937000  1.0
  Ag  Ag107  1  0.39672000  0.14370000  0.58336000  1.0
  Ag  Ag108  1  0.97395000  0.30959000  0.11082000  1.0
  Ag  Ag109  1  0.94437000  0.25476000  0.16649000  1.0
  Ag  Ag110  1  0.87278000  0.25702000  0.14006000  1.0
  Ag  Ag111  1  0.73707000  0.88671000  0.22098000  1.0
  Ag  Ag112  1  0.66802000  0.76433000  0.20673000  1.0
  Ag  Ag113  1  0.78715000  0.87058000  0.26299000  1.0
  Ag  Ag114  1  0.59487000  0.25891000  0.86654000  1.0
  Ag  Ag115  1  0.61822000  0.32068000  0.93272000  1.0
  Ag  Ag116  1  0.48815000  0.20831000  0.88482000  1.0
  Ag  Ag117  1  0.57820000  0.56505000  0.49443000  1.0
  Ag  Ag118  1  0.50771000  0.44380000  0.48931000  1.0
  Ag  Ag119  1  0.00517000  0.95106000  0.98021000  1.0
  Ag  Ag120  1  0.97707000  0.51735000  0.49468000  1.0
  Ag  Ag121  1  0.96625000  0.46165000  0.43321000  1.0
  Ag  Ag122  1  0.09356000  0.58504000  0.48236000  1.0
  Ag  Ag123  1  0.93222000  0.74289000  0.06677000  1.0
  Ag  Ag124  1  0.86565000  0.65287000  0.10672000  1.0
  Ag  Ag125  1  0.93359000  0.77391000  0.13932000  1.0
  Ag  Ag126  1  0.63996000  0.53705000  0.22933000  1.0
  Ag  Ag127  1  0.69256000  0.52105000  0.26269000  1.0
  Ag  Ag128  1  0.57935000  0.45569000  0.27980000  1.0
  Ag  Ag129  1  0.67422000  0.35131000  0.37979000  1.0
  Ag  Ag130  1  0.54672000  0.23941000  0.33323000  1.0
  Ag  Ag131  1  0.60176000  0.22412000  0.36418000  1.0
  Ag  Ag132  1  0.29328000  0.86813000  0.22487000  1.0
  Ag  Ag133  1  0.34895000  0.94355000  0.17558000  1.0
  Ag  Ag134  1  0.27421000  0.81641000  0.15454000  1.0
  Ag  Ag135  1  0.23296000  0.34832000  0.19720000  1.0
  Ag  Ag136  1  0.32999000  0.38936000  0.17973000  1.0
  Ag  Ag137  1  0.35630000  0.43966000  0.25302000  1.0
  Ag  Ag138  1  0.19041000  0.80123000  0.66436000  1.0
  Ag  Ag139  1  0.24524000  0.91173000  0.68961000  1.0
  Ag  Ag140  1  0.24298000  0.88304000  0.61576000  1.0
  Ag  Ag141  1  0.61329000  0.33427000  0.85036000  1.0
  Ag  Ag142  1  0.73567000  0.44240000  0.90369000  1.0
  Ag  Ag143  1  0.62942000  0.39241000  0.91657000  1.0
  Ag  Ag144  1  0.24109000  0.60763000  0.33596000  1.0
  Ag  Ag145  1  0.17932000  0.61204000  0.29754000  1.0
  Ag  Ag146  1  0.29169000  0.67651000  0.27984000  1.0
  Ag  Ag147  1  0.93495000  0.92938000  0.01315000  1.0
  Ag  Ag148  1  0.05620000  0.04551000  0.06391000  1.0
  Ag  Ag149  1  0.54894000  0.02915000  0.05411000  1.0
  Ag  Ag150  1  0.52267000  0.48239000  0.00532000  1.0
  Ag  Ag151  1  0.52843000  0.53304000  0.06679000  1.0
  Ag  Ag152  1  0.60268000  0.61120000  0.01764000  1.0
  Ag  Ag153  1  0.17612000  0.86545000  0.43323000  1.0
  Ag  Ag154  1  0.04615000  0.75893000  0.39328000  1.0
  Ag  Ag155  1  0.13459000  0.79427000  0.36068000  1.0
  Ag  Ag156  1  0.80772000  0.41063000  0.27067000  1.0
  Ag  Ag157  1  0.75836000  0.42987000  0.23731000  1.0
  Ag  Ag158  1  0.67589000  0.29955000  0.22020000  1.0
  Ag  Ag159  1  0.47152000  0.29443000  0.12021000  1.0
  Ag  Ag160  1  0.40618000  0.21349000  0.16677000  1.0
  Ag  Ag161  1  0.35994000  0.23758000  0.13582000  1.0
  Ag  Ag162  1  0.14326000  0.06841000  0.27513000  1.0
  Ag  Ag163  1  0.26797000  0.17337000  0.32442000  1.0
  Ag  Ag164  1  0.16187000  0.11967000  0.34546000  1.0
  Ag  Ag165  1  0.65112000  0.03576000  0.30280000  1.0
  Ag  Ag166  1  0.70963000  0.15026000  0.32027000  1.0
  Ag  Ag167  1  0.68664000  0.10328000  0.24698000  1.0
  Ag  Ag168  1  0.63687000  0.52605000  0.83564000  1.0
  Ag  Ag169  1  0.72212000  0.55563000  0.81039000  1.0
  Ag  Ag170  1  0.76728000  0.62722000  0.88424000  1.0
  Ag  Ag171  1  0.98391000  0.76293000  0.64964000  1.0
  Ag  Ag172  1  0.03871000  0.83198000  0.59631000  1.0
  Ag  Ag173  1  0.97584000  0.71285000  0.58343000  1.0
  Ag  Ag174  1  0.77167000  0.90513000  0.16404000  1.0
  Ag  Ag175  1  0.81450000  0.88178000  0.20246000  1.0
  Ag  Ag176  1  0.89667000  0.01185000  0.22016000  1.0
  Ag  Ag177  1  0.41623000  0.92180000  0.48685000  1.0
  Ag  Ag178  1  0.48160000  0.99229000  0.43609000  1.0
  Ag  Ag179  1  0.47504000  0.49483000  0.44589000  1.0
  Ag  Ag180  1  0.01735000  0.02267000  0.54028000  1.0
  Ag  Ag181  1  0.96165000  0.02843000  0.49540000  1.0
  Ag  Ag182  1  0.08504000  0.10268000  0.49148000  1.0
  Ag  Ag183  1  0.24289000  0.67612000  0.81067000  1.0
  Ag  Ag184  1  0.15287000  0.54615000  0.78722000  1.0
  Ag  Ag185  1  0.27391000  0.63459000  0.84032000  1.0
  Ag  Ag186  1  0.03705000  0.30772000  0.89709000  1.0
  Ag  Ag187  1  0.02105000  0.25836000  0.82849000  1.0
  Ag  Ag188  1  0.95569000  0.17589000  0.87634000  1.0
  Ag  Ag189  1  0.85131000  0.97152000  0.67709000  1.0
  Ag  Ag190  1  0.73941000  0.90618000  0.69269000  1.0
  Ag  Ag191  1  0.72412000  0.85994000  0.62236000  1.0
  Ag  Ag192  1  0.36813000  0.64326000  0.57485000  1.0
  Ag  Ag193  1  0.44355000  0.76797000  0.59460000  1.0
  Ag  Ag194  1  0.31641000  0.66187000  0.54220000  1.0
  Ag  Ag195  1  0.84832000  0.15112000  0.11536000  1.0
  Ag  Ag196  1  0.88936000  0.20963000  0.05937000  1.0
  Ag  Ag197  1  0.93966000  0.18664000  0.08336000  1.0
  Ag  Ag198  1  0.30123000  0.13687000  0.61082000  1.0
  Ag  Ag199  1  0.41173000  0.22212000  0.66649000  1.0
  Ag  Ag200  1  0.38304000  0.26728000  0.64006000  1.0
  Ag  Ag201  1  0.83427000  0.48391000  0.72098000  1.0
  Ag  Ag202  1  0.94240000  0.53871000  0.70673000  1.0
  Ag  Ag203  1  0.89241000  0.47584000  0.76299000  1.0
  Ag  Ag204  1  0.10763000  0.27167000  0.36654000  1.0
  Ag  Ag205  1  0.11204000  0.31450000  0.43272000  1.0
  Ag  Ag206  1  0.17651000  0.39667000  0.38482000  1.0
  Ag  Ag207  1  0.42938000  0.91623000  0.99443000  1.0
  Ag  Ag208  1  0.54551000  0.98160000  0.98931000  1.0
  Ag  Ag209  1  0.52915000  0.97504000  0.48021000  1.0
  Ag  Ag210  1  0.98239000  0.47707000  0.95972000  1.0
  Ag  Ag211  1  0.03304000  0.46625000  0.00460000  1.0
  Ag  Ag212  1  0.11120000  0.59356000  0.00852000  1.0
  Ag  Ag213  1  0.36545000  0.43222000  0.68933000  1.0
  Ag  Ag214  1  0.25893000  0.36565000  0.71278000  1.0
  Ag  Ag215  1  0.29427000  0.43359000  0.65968000  1.0
  Ag  Ag216  1  0.91063000  0.13996000  0.60291000  1.0
  Ag  Ag217  1  0.92987000  0.19256000  0.67151000  1.0
  Ag  Ag218  1  0.79955000  0.07935000  0.62366000  1.0
  Ag  Ag219  1  0.79443000  0.17422000  0.82291000  1.0
  Ag  Ag220  1  0.71349000  0.04672000  0.80731000  1.0
  Ag  Ag221  1  0.73758000  0.10176000  0.87764000  1.0
  Ag  Ag222  1  0.56841000  0.79328000  0.92515000  1.0
  Ag  Ag223  1  0.67337000  0.84895000  0.90540000  1.0
  Ag  Ag224  1  0.61967000  0.77421000  0.95780000  1.0
  Ag  Ag225  1  0.53576000  0.73296000  0.38464000  1.0
  Ag  Ag226  1  0.65026000  0.82999000  0.44063000  1.0
  Ag  Ag227  1  0.60328000  0.85630000  0.41664000  1.0
  Ag  Ag228  1  0.02605000  0.69041000  0.88918000  1.0
  Ag  Ag229  1  0.05563000  0.74524000  0.83351000  1.0
  Ag  Ag230  1  0.12722000  0.74298000  0.85994000  1.0
  Ag  Ag231  1  0.26293000  0.11329000  0.77902000  1.0
  Ag  Ag232  1  0.33198000  0.23567000  0.79327000  1.0
  Ag  Ag233  1  0.21285000  0.12942000  0.73701000  1.0
  Ag  Ag234  1  0.40513000  0.74109000  0.13346000  1.0
  Ag  Ag235  1  0.38178000  0.67932000  0.06728000  1.0
  Ag  Ag236  1  0.51185000  0.79169000  0.11518000  1.0
  Ag  Ag237  1  0.42180000  0.43495000  0.50557000  1.0
  Ag  Ag238  1  0.49229000  0.55620000  0.51069000  1.0
  Ag  Ag239  1  0.99483000  0.04894000  0.01979000  1.0
  H  H240  1  0.12080000  0.53560000  0.49680000  1.0
  H  H241  1  0.15940000  0.54850000  0.52010000  1.0
  H  H242  1  0.18380000  0.59480000  0.50740000  1.0
  H  H243  1  0.20360000  0.66240000  0.62380000  1.0
  H  H244  1  0.14170000  0.61310000  0.62320000  1.0
  H  H245  1  0.16990000  0.66140000  0.61090000  1.0
  H  H246  1  0.03630000  0.57140000  0.62630000  1.0
  H  H247  1  0.99850000  0.53300000  0.64670000  1.0
  H  H248  1  0.00070000  0.56650000  0.63640000  1.0
  H  H249  1  0.81050000  0.36150000  0.53260000  1.0
  H  H250  1  0.79780000  0.37690000  0.55390000  1.0
  H  H251  1  0.79840000  0.34520000  0.56320000  1.0
  H  H252  1  0.77550000  0.24900000  0.45170000  1.0
  H  H253  1  0.79370000  0.29710000  0.46060000  1.0
  H  H254  1  0.79790000  0.27940000  0.48610000  1.0
  H  H255  1  0.01290000  0.42770000  0.45820000  1.0
  H  H256  1  0.97100000  0.38290000  0.42670000  1.0
  H  H257  1  0.97700000  0.36930000  0.45450000  1.0
  H  H258  1  0.09650000  0.29780000  0.00130000  1.0
  H  H259  1  0.11390000  0.34200000  0.02130000  1.0
  H  H260  1  0.15660000  0.35280000  0.02220000  1.0
  H  H261  1  0.20650000  0.45720000  0.92290000  1.0
  H  H262  1  0.25530000  0.49620000  0.95250000  1.0
  H  H263  1  0.21210000  0.48500000  0.95090000  1.0
  H  H264  1  0.20210000  0.42930000  0.86420000  1.0
  H  H265  1  0.20820000  0.43520000  0.83120000  1.0
  H  H266  1  0.25220000  0.45630000  0.85570000  1.0
  H  H267  1  0.09290000  0.22090000  0.80380000  1.0
  H  H268  1  0.15340000  0.26620000  0.80280000  1.0
  H  H269  1  0.11330000  0.24950000  0.77760000  1.0
  H  H270  1  0.01960000  0.09540000  0.86360000  1.0
  H  H271  1  0.05950000  0.15090000  0.85600000  1.0
  H  H272  1  0.99610000  0.10120000  0.84330000  1.0
  H  H273  1  0.01920000  0.18480000  0.96900000  1.0
  H  H274  1  0.04350000  0.17470000  0.97900000  1.0
  H  H275  1  0.98010000  0.12490000  0.96540000  1.0
  H  H276  1  0.30670000  0.39620000  0.81670000  1.0
  H  H277  1  0.28530000  0.39590000  0.84180000  1.0
  H  H278  1  0.24500000  0.34200000  0.81600000  1.0
  H  H279  1  0.21930000  0.43350000  0.75380000  1.0
  H  H280  1  0.16500000  0.37530000  0.75770000  1.0
  H  H281  1  0.20450000  0.42740000  0.78470000  1.0
  H  H282  1  0.26650000  0.49890000  0.71140000  1.0
  H  H283  1  0.30170000  0.55610000  0.71100000  1.0
  H  H284  1  0.26240000  0.50900000  0.68060000  1.0
  H  H285  1  0.46290000  0.60830000  0.67660000  1.0
  H  H286  1  0.43960000  0.60810000  0.64930000  1.0
  H  H287  1  0.47860000  0.65480000  0.68000000  1.0
  H  H288  1  0.52010000  0.60170000  0.71240000  1.0
  H  H289  1  0.56990000  0.63040000  0.73610000  1.0
  H  H290  1  0.53760000  0.58380000  0.70700000  1.0
  H  H291  1  0.40170000  0.44560000  0.79310000  1.0
  H  H292  1  0.42330000  0.43570000  0.77840000  1.0
  H  H293  1  0.46130000  0.48480000  0.80730000  1.0
  H  H294  1  0.26830000  0.54210000  0.61060000  1.0
  H  H295  1  0.28660000  0.52460000  0.61260000  1.0
  H  H296  1  0.25980000  0.51730000  0.63690000  1.0
  H  H297  1  0.49470000  0.74700000  0.70350000  1.0
  H  H298  1  0.46380000  0.70180000  0.72020000  1.0
  H  H299  1  0.49090000  0.70970000  0.69600000  1.0
  H  H300  1  0.59920000  0.91450000  0.73950000  1.0
  H  H301  1  0.54690000  0.85040000  0.72950000  1.0
  H  H302  1  0.58790000  0.88400000  0.70950000  1.0
  H  H303  1  0.45930000  0.88430000  0.65900000  1.0
  H  H304  1  0.47950000  0.91100000  0.69410000  1.0
  H  H305  1  0.52070000  0.94480000  0.67410000  1.0
  H  H306  1  0.33970000  0.77660000  0.61210000  1.0
  H  H307  1  0.29860000  0.74780000  0.58060000  1.0
  H  H308  1  0.28070000  0.73830000  0.61060000  1.0
  H  H309  1  0.16260000  0.53660000  0.56600000  1.0
  H  H310  1  0.21020000  0.55500000  0.56440000  1.0
  H  H311  1  0.19400000  0.54740000  0.59500000  1.0
  H  H312  1  0.66980000  0.07830000  0.70950000  1.0
  H  H313  1  0.60810000  0.02280000  0.69090000  1.0
  H  H314  1  0.64800000  0.02980000  0.69180000  1.0
  H  H315  1  0.57180000  0.94240000  0.80200000  1.0
  H  H316  1  0.55860000  0.90620000  0.77560000  1.0
  H  H317  1  0.51970000  0.90040000  0.77430000  1.0
  H  H318  1  0.59780000  0.99080000  0.86560000  1.0
  H  H319  1  0.55450000  0.97310000  0.87720000  1.0
  H  H320  1  0.60320000  0.99970000  0.90050000  1.0
  H  H321  1  0.67560000  0.17480000  0.92720000  1.0
  H  H322  1  0.68260000  0.18780000  0.89560000  1.0
  H  H323  1  0.73010000  0.21270000  0.91900000  1.0
  H  H324  1  0.76490000  0.27810000  0.85240000  1.0
  H  H325  1  0.73730000  0.27780000  0.82930000  1.0
  H  H326  1  0.80100000  0.32730000  0.83830000  1.0
  H  H327  1  0.74410000  0.18980000  0.73070000  1.0
  H  H328  1  0.78000000  0.24670000  0.72830000  1.0
  H  H329  1  0.71630000  0.19620000  0.72110000  1.0
  H  H330  1  0.88050000  0.75150000  0.84540000  1.0
  H  H331  1  0.90490000  0.77760000  0.88090000  1.0
  H  H332  1  0.91030000  0.80630000  0.85960000  1.0
  H  H333  1  0.69210000  0.66120000  0.87850000  1.0
  H  H334  1  0.73910000  0.72410000  0.89060000  1.0
  H  H335  1  0.73310000  0.69410000  0.91100000  1.0
  H  H336  1  0.59680000  0.58780000  0.83700000  1.0
  H  H337  1  0.53670000  0.54840000  0.82490000  1.0
  H  H338  1  0.58580000  0.60870000  0.82250000  1.0
  H  H339  1  0.55440000  0.51530000  0.70110000  1.0
  H  H340  1  0.54560000  0.54190000  0.70070000  1.0
  H  H341  1  0.49730000  0.48070000  0.70120000  1.0
  H  H342  1  0.63430000  0.52630000  0.68500000  1.0
  H  H343  1  0.65810000  0.51880000  0.67050000  1.0
  H  H344  1  0.67810000  0.56710000  0.66740000  1.0
  H  H345  1  0.84820000  0.68800000  0.78420000  1.0
  H  H346  1  0.87080000  0.71290000  0.75670000  1.0
  H  H347  1  0.85130000  0.66500000  0.75990000  1.0
  H  H348  1  0.85010000  0.26810000  0.29440000  1.0
  H  H349  1  0.88980000  0.29020000  0.27520000  1.0
  H  H350  1  0.83360000  0.25670000  0.25910000  1.0
  H  H351  1  0.75270000  0.06290000  0.24860000  1.0
  H  H352  1  0.74460000  0.06960000  0.21740000  1.0
  H  H353  1  0.80070000  0.10280000  0.23330000  1.0
  H  H354  1  0.93120000  0.22360000  0.22000000  1.0
  H  H355  1  0.92760000  0.23870000  0.24990000  1.0
  H  H356  1  0.88070000  0.17710000  0.23260000  1.0
  H  H357  1  0.79010000  0.20880000  0.17150000  1.0
  H  H358  1  0.75210000  0.16200000  0.18770000  1.0
  H  H359  1  0.79930000  0.22290000  0.20660000  1.0
  H  H360  1  0.77680000  0.16190000  0.44810000  1.0
  H  H361  1  0.83300000  0.22100000  0.46960000  1.0
  H  H362  1  0.78190000  0.19870000  0.46260000  1.0
  H  H363  1  0.86790000  0.29940000  0.35730000  1.0
  H  H364  1  0.86140000  0.32020000  0.38020000  1.0
  H  H365  1  0.91430000  0.34550000  0.38760000  1.0
  H  H366  1  0.39340000  0.70760000  0.20820000  1.0
  H  H367  1  0.35840000  0.70300000  0.21920000  1.0
  H  H368  1  0.35560000  0.66870000  0.22850000  1.0
  H  H369  1  0.16940000  0.50010000  0.11370000  1.0
  H  H370  1  0.15490000  0.48380000  0.14430000  1.0
  H  H371  1  0.15770000  0.51770000  0.13380000  1.0
  H  H372  1  0.15530000  0.45630000  0.05180000  1.0
  H  H373  1  0.13640000  0.43480000  0.01620000  1.0
  H  H374  1  0.12820000  0.40350000  0.03650000  1.0
  H  H375  1  0.35140000  0.55410000  0.02850000  1.0
  H  H376  1  0.30450000  0.49120000  0.01630000  1.0
  H  H377  1  0.31360000  0.52210000  0.99490000  1.0
  H  H378  1  0.14750000  0.56860000  0.18750000  1.0
  H  H379  1  0.20530000  0.61670000  0.18160000  1.0
  H  H380  1  0.15860000  0.55670000  0.16130000  1.0
  H  H381  1  0.25270000  0.55800000  0.26190000  1.0
  H  H382  1  0.25000000  0.54200000  0.22900000  1.0
  H  H383  1  0.29910000  0.60380000  0.24690000  1.0
  H  H384  1  0.79300000  0.43510000  0.60950000  1.0
  H  H385  1  0.80030000  0.41940000  0.58270000  1.0
  H  H386  1  0.84910000  0.48080000  0.60150000  1.0
  H  H387  1  0.90040000  0.42200000  0.68020000  1.0
  H  H388  1  0.94600000  0.46850000  0.66530000  1.0
  H  H389  1  0.89720000  0.40700000  0.64680000  1.0
  H  H390  1  0.86850000  0.37780000  0.73110000  1.0
  H  H391  1  0.83560000  0.32180000  0.73220000  1.0
  H  H392  1  0.87490000  0.36970000  0.76220000  1.0
  H  H393  1  0.66790000  0.26290000  0.76640000  1.0
  H  H394  1  0.69410000  0.26760000  0.79490000  1.0
  H  H395  1  0.65450000  0.21820000  0.76570000  1.0
  H  H396  1  0.71960000  0.52450000  0.67970000  1.0
  H  H397  1  0.75740000  0.53350000  0.66810000  1.0
  H  H398  1  0.71660000  0.51800000  0.64500000  1.0
  H  H399  1  0.89410000  0.76050000  0.69120000  1.0
  H  H400  1  0.88120000  0.74320000  0.72160000  1.0
  H  H401  1  0.83970000  0.72620000  0.69770000  1.0
  H  H402  1  0.11530000  0.16840000  0.98910000  1.0
  H  H403  1  0.09770000  0.18590000  0.98300000  1.0
  H  H404  1  0.12800000  0.19340000  0.96200000  1.0
  H  H405  1  0.90320000  0.96360000  0.88840000  1.0
  H  H406  1  0.93550000  0.00990000  0.87240000  1.0
  H  H407  1  0.90100000  0.99590000  0.89290000  1.0
  H  H408  1  0.84570000  0.86040000  0.89370000  1.0
  H  H409  1  0.79500000  0.79660000  0.88620000  1.0
  H  H410  1  0.83710000  0.82860000  0.86690000  1.0
  H  H411  1  0.95330000  0.84850000  0.96320000  1.0
  H  H412  1  0.93160000  0.81420000  0.93060000  1.0
  H  H413  1  0.89260000  0.78610000  0.95170000  1.0
  H  H414  1  0.46350000  0.95210000  0.89140000  1.0
  H  H415  1  0.50000000  0.95790000  0.88190000  1.0
  H  H416  1  0.50550000  0.99470000  0.87360000  1.0
  H  H417  1  0.67070000  0.14460000  0.99770000  1.0
  H  H418  1  0.69330000  0.16950000  0.97020000  1.0
  H  H419  1  0.68870000  0.13350000  0.97860000  1.0
  H  H420  1  0.53880000  0.62400000  0.00320000  1.0
  H  H421  1  0.52840000  0.63930000  0.97990000  1.0
  H  H422  1  0.58740000  0.67640000  0.99260000  1.0
  H  H423  1  0.53860000  0.57980000  0.87620000  1.0
  H  H424  1  0.48990000  0.51850000  0.87680000  1.0
  H  H425  1  0.55050000  0.55900000  0.88910000  1.0
  H  H426  1  0.44510000  0.41000000  0.87370000  1.0
  H  H427  1  0.38630000  0.35180000  0.85330000  1.0
  H  H428  1  0.43010000  0.36430000  0.86360000  1.0
  H  H429  1  0.32890000  0.27790000  0.96740000  1.0
  H  H430  1  0.32300000  0.24390000  0.94610000  1.0
  H  H431  1  0.28200000  0.23520000  0.93680000  1.0
  H  H432  1  0.29730000  0.32380000  0.04830000  1.0
  H  H433  1  0.33650000  0.33310000  0.03940000  1.0
  H  H434  1  0.29330000  0.31180000  0.01390000  1.0
  H  H435  1  0.46950000  0.55470000  0.04180000  1.0
  H  H436  1  0.45620000  0.54430000  0.07330000  1.0
  H  H437  1  0.41480000  0.52250000  0.04550000  1.0
  H  H438  1  0.79650000  0.09520000  0.49870000  1.0
  H  H439  1  0.82070000  0.09260000  0.47870000  1.0
  H  H440  1  0.83060000  0.13440000  0.47780000  1.0
  H  H441  1  0.03430000  0.28360000  0.57710000  1.0
  H  H442  1  0.04370000  0.30280000  0.54750000  1.0
  H  H443  1  0.03410000  0.26120000  0.54910000  1.0
  H  H444  1  0.06510000  0.33790000  0.63580000  1.0
  H  H445  1  0.10400000  0.37700000  0.66880000  1.0
  H  H446  1  0.10060000  0.39650000  0.64430000  1.0
  H  H447  1  0.91710000  0.28910000  0.69620000  1.0
  H  H448  1  0.96340000  0.35060000  0.69720000  1.0
  H  H449  1  0.97190000  0.33570000  0.72240000  1.0
  H  H450  1  0.73180000  0.15600000  0.63640000  1.0
  H  H451  1  0.79490000  0.20350000  0.64400000  1.0
  H  H452  1  0.75790000  0.15280000  0.65670000  1.0
  H  H453  1  0.71580000  0.05020000  0.53100000  1.0
  H  H454  1  0.69570000  0.06450000  0.52100000  1.0
  H  H455  1  0.65950000  0.01470000  0.53460000  1.0
  H  H456  1  0.07950000  0.49000000  0.68330000  1.0
  H  H457  1  0.05410000  0.44350000  0.65820000  1.0
  H  H458  1  0.02600000  0.42900000  0.68400000  1.0
  H  H459  1  0.17970000  0.46550000  0.74620000  1.0
  H  H460  1  0.11760000  0.40730000  0.74230000  1.0
  H  H461  1  0.14270000  0.41980000  0.71530000  1.0
  H  H462  1  0.28750000  0.55510000  0.78860000  1.0
  H  H463  1  0.34510000  0.59070000  0.78900000  1.0
  H  H464  1  0.32840000  0.58180000  0.81940000  1.0
  H  H465  1  0.43170000  0.78630000  0.82340000  1.0
  H  H466  1  0.45880000  0.79030000  0.85070000  1.0
  H  H467  1  0.47480000  0.79860000  0.82000000  1.0
  H  H468  1  0.38930000  0.80770000  0.78760000  1.0
  H  H469  1  0.39430000  0.83380000  0.76390000  1.0
  H  H470  1  0.37680000  0.83060000  0.79300000  1.0
  H  H471  1  0.15250000  0.60860000  0.70690000  1.0
  H  H472  1  0.15730000  0.64490000  0.72160000  1.0
  H  H473  1  0.17750000  0.65400000  0.69270000  1.0
  H  H474  1  0.43150000  0.65770000  0.88940000  1.0
  H  H475  1  0.41200000  0.67400000  0.88740000  1.0
  H  H476  1  0.38040000  0.62290000  0.86310000  1.0
  H  H477  1  0.54350000  0.79120000  0.79650000  1.0
  H  H478  1  0.48160000  0.74360000  0.77980000  1.0
  H  H479  1  0.51370000  0.79490000  0.80400000  1.0
  H  H480  1  0.67500000  0.85970000  0.76050000  1.0
  H  H481  1  0.62090000  0.81740000  0.77050000  1.0
  H  H482  1  0.67450000  0.87840000  0.79050000  1.0
  H  H483  1  0.72530000  0.80030000  0.84100000  1.0
  H  H484  1  0.71690000  0.78540000  0.80590000  1.0
  H  H485  1  0.77070000  0.84660000  0.82590000  1.0
  H  H486  1  0.66450000  0.72760000  0.88790000  1.0
  H  H487  1  0.66720000  0.71800000  0.91940000  1.0
  H  H488  1  0.62770000  0.67010000  0.88940000  1.0
  H  H489  1  0.47060000  0.59660000  0.93400000  1.0
  H  H490  1  0.49060000  0.64580000  0.93560000  1.0
  H  H491  1  0.45240000  0.59900000  0.90500000  1.0
  H  H492  1  0.86880000  0.96030000  0.79050000  1.0
  H  H493  1  0.83190000  0.91720000  0.80910000  1.0
  H  H494  1  0.83800000  0.95620000  0.80820000  1.0
  H  H495  1  0.64040000  0.76980000  0.69800000  1.0
  H  H496  1  0.63060000  0.78300000  0.72440000  1.0
  H  H497  1  0.62610000  0.74540000  0.72570000  1.0
  H  H498  1  0.62520000  0.73220000  0.63440000  1.0
  H  H499  1  0.59590000  0.67730000  0.62280000  1.0
  H  H500  1  0.59920000  0.70270000  0.59950000  1.0
  H  H501  1  0.74760000  0.74840000  0.57280000  1.0
  H  H502  1  0.79220000  0.78700000  0.60440000  1.0
  H  H503  1  0.79370000  0.81110000  0.58100000  1.0
  H  H504  1  0.92570000  0.91250000  0.64760000  1.0
  H  H505  1  0.94850000  0.90800000  0.67070000  1.0
  H  H506  1  0.98900000  0.96270000  0.66170000  1.0
  H  H507  1  0.95910000  0.01340000  0.76930000  1.0
  H  H508  1  0.01840000  0.05170000  0.77170000  1.0
  H  H509  1  0.97510000  0.99520000  0.77890000  1.0
  H  H510  1  0.40610000  0.03510000  0.65460000  1.0
  H  H511  1  0.39670000  0.02400000  0.61910000  1.0
  H  H512  1  0.44670000  0.05070000  0.64040000  1.0
  H  H513  1  0.28270000  0.81360000  0.62150000  1.0
  H  H514  1  0.33350000  0.84850000  0.60940000  1.0
  H  H515  1  0.28310000  0.82210000  0.58900000  1.0
  H  H516  1  0.25080000  0.75980000  0.66300000  1.0
  H  H517  1  0.22350000  0.71180000  0.67510000  1.0
  H  H518  1  0.28620000  0.76330000  0.67750000  1.0
  H  H519  1  0.31420000  0.85330000  0.79890000  1.0
  H  H520  1  0.34120000  0.84490000  0.79930000  1.0
  H  H521  1  0.27950000  0.79610000  0.79880000  1.0
  H  H522  1  0.34130000  0.94930000  0.81500000  1.0
  H  H523  1  0.34830000  0.98760000  0.82950000  1.0
  H  H524  1  0.39970000  0.01070000  0.83260000  1.0
  H  H525  1  0.40380000  0.06400000  0.71580000  1.0
  H  H526  1  0.45620000  0.11410000  0.74330000  1.0
  H  H527  1  0.40510000  0.09140000  0.74010000  1.0
  H  H528  1  0.47370000  0.55570000  0.20560000  1.0
  H  H529  1  0.51500000  0.61460000  0.22480000  1.0
  H  H530  1  0.49760000  0.57450000  0.24090000  1.0
  H  H531  1  0.31430000  0.50410000  0.25140000  1.0
  H  H532  1  0.35220000  0.52720000  0.28260000  1.0
  H  H533  1  0.36950000  0.56740000  0.26670000  1.0
  H  H534  1  0.50360000  0.71120000  0.28000000  1.0
  H  H535  1  0.48880000  0.67770000  0.25010000  1.0
  H  H536  1  0.44450000  0.64810000  0.26740000  1.0
  H  H537  1  0.53730000  0.61860000  0.32850000  1.0
  H  H538  1  0.47430000  0.56440000  0.31230000  1.0
  H  H539  1  0.51630000  0.59270000  0.29340000  1.0
  H  H540  1  0.21380000  0.32870000  0.05190000  1.0
  H  H541  1  0.25140000  0.36340000  0.03040000  1.0
  H  H542  1  0.23610000  0.31930000  0.03740000  1.0
  H  H543  1  0.44210000  0.51060000  0.14270000  1.0
  H  H544  1  0.44000000  0.48120000  0.11980000  1.0
  H  H545  1  0.45790000  0.52670000  0.11240000  1.0
  H  H546  1  0.99940000  0.18520000  0.29180000  1.0
  H  H547  1  0.98380000  0.13920000  0.28080000  1.0
  H  H548  1  0.94020000  0.12710000  0.27150000  1.0
  H  H549  1  0.88640000  0.05570000  0.38630000  1.0
  H  H550  1  0.83950000  0.01060000  0.35570000  1.0
  H  H551  1  0.88390000  0.02390000  0.36620000  1.0
  H  H552  1  0.90450000  0.10350000  0.44820000  1.0
  H  H553  1  0.91860000  0.12020000  0.48380000  1.0
  H  H554  1  0.86700000  0.09170000  0.46350000  1.0
  H  H555  1  0.02560000  0.32290000  0.47150000  1.0
  H  H556  1  0.97490000  0.28820000  0.48370000  1.0
  H  H557  1  0.02720000  0.31870000  0.50510000  1.0
  H  H558  1  0.88110000  0.96000000  0.31250000  1.0
  H  H559  1  0.93510000  0.02370000  0.31840000  1.0
  H  H560  1  0.89540000  0.99730000  0.33870000  1.0
  H  H561  1  0.79610000  0.99080000  0.23810000  1.0
  H  H562  1  0.81300000  0.02100000  0.27100000  1.0
  H  H563  1  0.85690000  0.05220000  0.25310000  1.0
  H  H564  1  0.32560000  0.18350000  0.89050000  1.0
  H  H565  1  0.33670000  0.21760000  0.91730000  1.0
  H  H566  1  0.37930000  0.24760000  0.89850000  1.0
  H  H567  1  0.24180000  0.22020000  0.81980000  1.0
  H  H568  1  0.30320000  0.28070000  0.83470000  1.0
  H  H569  1  0.26020000  0.25040000  0.85320000  1.0
  H  H570  1  0.14670000  0.13740000  0.76890000  1.0
  H  H571  1  0.08960000  0.10340000  0.76780000  1.0
  H  H572  1  0.10750000  0.11270000  0.73780000  1.0
  H  H573  1  0.99650000  0.90150000  0.73360000  1.0
  H  H574  1  0.97270000  0.89920000  0.70510000  1.0
  H  H575  1  0.95250000  0.88880000  0.73430000  1.0
  H  H576  1  0.34480000  0.03990000  0.82030000  1.0
  H  H577  1  0.36540000  0.08930000  0.83190000  1.0
  H  H578  1  0.37300000  0.07160000  0.85500000  1.0
  H  H579  1  0.56930000  0.20290000  0.80880000  1.0
  H  H580  1  0.52160000  0.15960000  0.77840000  1.0
  H  H581  1  0.52850000  0.14200000  0.80230000  1.0
  H  H582  1  0.67930000  0.12620000  0.51090000  1.0
  H  H583  1  0.70290000  0.11470000  0.51700000  1.0
  H  H584  1  0.73140000  0.16600000  0.53800000  1.0
  H  H585  1  0.57520000  0.01480000  0.61160000  1.0
  H  H586  1  0.63750000  0.06310000  0.62760000  1.0
  H  H587  1  0.60300000  0.00810000  0.60710000  1.0
  H  H588  1  0.46670000  0.95200000  0.60630000  1.0
  H  H589  1  0.41040000  0.90880000  0.61380000  1.0
  H  H590  1  0.46170000  0.97020000  0.63310000  1.0
  H  H591  1  0.38530000  0.99010000  0.53680000  1.0
  H  H592  1  0.38360000  0.00100000  0.56940000  1.0
  H  H593  1  0.33440000  0.94090000  0.54830000  1.0
  H  H594  1  0.56070000  0.57210000  0.60860000  1.0
  H  H595  1  0.57600000  0.61810000  0.61810000  1.0
  H  H596  1  0.62110000  0.63190000  0.62640000  1.0
  H  H597  1  0.64690000  0.67300000  0.50230000  1.0
  H  H598  1  0.69930000  0.72310000  0.52980000  1.0
  H  H599  1  0.65490000  0.71010000  0.52140000  1.0
  H  H600  1  0.03560000  0.03880000  0.41480000  1.0
  H  H601  1  0.04850000  0.02840000  0.38910000  1.0
  H  H602  1  0.09480000  0.08740000  0.41100000  1.0
  H  H603  1  0.16240000  0.03860000  0.45880000  1.0
  H  H604  1  0.11310000  0.98990000  0.47140000  1.0
  H  H605  1  0.16140000  0.05050000  0.49150000  1.0
  H  H606  1  0.07140000  0.94510000  0.53510000  1.0
  H  H607  1  0.03300000  0.88630000  0.53450000  1.0
  H  H608  1  0.06650000  0.93010000  0.56580000  1.0
  H  H609  1  0.86150000  0.82890000  0.55100000  1.0
  H  H610  1  0.87690000  0.82300000  0.57910000  1.0
  H  H611  1  0.84520000  0.78200000  0.54680000  1.0
  H  H612  1  0.74900000  0.79730000  0.47350000  1.0
  H  H613  1  0.79710000  0.83650000  0.50340000  1.0
  H  H614  1  0.77940000  0.79330000  0.48150000  1.0
  H  H615  1  0.92770000  0.96950000  0.41480000  1.0
  H  H616  1  0.88290000  0.95620000  0.41190000  1.0
  H  H617  1  0.86930000  0.91480000  0.39230000  1.0
  H  H618  1  0.79780000  0.29650000  0.20130000  1.0
  H  H619  1  0.84200000  0.32070000  0.22810000  1.0
  H  H620  1  0.85280000  0.33060000  0.19620000  1.0
  H  H621  1  0.95720000  0.53430000  0.25070000  1.0
  H  H622  1  0.99620000  0.54370000  0.24090000  1.0
  H  H623  1  0.98500000  0.53410000  0.27290000  1.0
  H  H624  1  0.92930000  0.56510000  0.22720000  1.0
  H  H625  1  0.93520000  0.60400000  0.22700000  1.0
  H  H626  1  0.95630000  0.60060000  0.20410000  1.0
  H  H627  1  0.72090000  0.41710000  0.12800000  1.0
  H  H628  1  0.76620000  0.46340000  0.11280000  1.0
  H  H629  1  0.74950000  0.47190000  0.13620000  1.0
  H  H630  1  0.59540000  0.23180000  0.07580000  1.0
  H  H631  1  0.65090000  0.29490000  0.09140000  1.0
  H  H632  1  0.60120000  0.25790000  0.10510000  1.0
  H  H633  1  0.68480000  0.21580000  0.16560000  1.0
  H  H634  1  0.67470000  0.19570000  0.13120000  1.0
  H  H635  1  0.62490000  0.15950000  0.14480000  1.0
  H  H636  1  0.89620000  0.57950000  0.08950000  1.0
  H  H637  1  0.89590000  0.55410000  0.11060000  1.0
  H  H638  1  0.84200000  0.52600000  0.09700000  1.0
  H  H639  1  0.93350000  0.67970000  0.21420000  1.0
  H  H640  1  0.87530000  0.61760000  0.21030000  1.0
  H  H641  1  0.92740000  0.64270000  0.22290000  1.0
  H  H642  1  0.99890000  0.78750000  0.23240000  1.0
  H  H643  1  0.05610000  0.84510000  0.25440000  1.0
  H  H644  1  0.00900000  0.82840000  0.24660000  1.0
  H  H645  1  0.10830000  0.93170000  0.14540000  1.0
  H  H646  1  0.10810000  0.95880000  0.16850000  1.0
  H  H647  1  0.15480000  0.97480000  0.17620000  1.0
  H  H648  1  0.10170000  0.88930000  0.08160000  1.0
  H  H649  1  0.13040000  0.89430000  0.06050000  1.0
  H  H650  1  0.08380000  0.87680000  0.04620000  1.0
  H  H651  1  0.94560000  0.65250000  0.04390000  1.0
  H  H652  1  0.93570000  0.65730000  0.01240000  1.0
  H  H653  1  0.98480000  0.67750000  0.02350000  1.0
  H  H654  1  0.04210000  0.93150000  0.27380000  1.0
  H  H655  1  0.02460000  0.91200000  0.23800000  1.0
  H  H656  1  0.01730000  0.88040000  0.25750000  1.0
  H  H657  1  0.24700000  0.04350000  0.25230000  1.0
  H  H658  1  0.20180000  0.98160000  0.23800000  1.0
  H  H659  1  0.20970000  0.01370000  0.21880000  1.0
  H  H660  1  0.41450000  0.17500000  0.31530000  1.0
  H  H661  1  0.35040000  0.12090000  0.30350000  1.0
  H  H662  1  0.38400000  0.17450000  0.29610000  1.0
  H  H663  1  0.38430000  0.22530000  0.42500000  1.0
  H  H664  1  0.41100000  0.21690000  0.43150000  1.0
  H  H665  1  0.44480000  0.27070000  0.42410000  1.0
  H  H666  1  0.27660000  0.16450000  0.43690000  1.0
  H  H667  1  0.24780000  0.16720000  0.44920000  1.0
  H  H668  1  0.23830000  0.12770000  0.45760000  1.0
  H  H669  1  0.03660000  0.97060000  0.37400000  1.0
  H  H670  1  0.05500000  0.99060000  0.34480000  1.0
  H  H671  1  0.04740000  0.95240000  0.35340000  1.0
  H  H672  1  0.57830000  0.36880000  0.40850000  1.0
  H  H673  1  0.52280000  0.33190000  0.41470000  1.0
  H  H674  1  0.52980000  0.33800000  0.38180000  1.0
  H  H675  1  0.44240000  0.14040000  0.37060000  1.0
  H  H676  1  0.40620000  0.13060000  0.34760000  1.0
  H  H677  1  0.40040000  0.12610000  0.38070000  1.0
  H  H678  1  0.49080000  0.12520000  0.39300000  1.0
  H  H679  1  0.47310000  0.09590000  0.41860000  1.0
  H  H680  1  0.49970000  0.09920000  0.39650000  1.0
  H  H681  1  0.67480000  0.24760000  0.49920000  1.0
  H  H682  1  0.68780000  0.29220000  0.50520000  1.0
  H  H683  1  0.71270000  0.29370000  0.48260000  1.0
  H  H684  1  0.77810000  0.42570000  0.51320000  1.0
  H  H685  1  0.77780000  0.44850000  0.54050000  1.0
  H  H686  1  0.82730000  0.48900000  0.52630000  1.0
  H  H687  1  0.68980000  0.45910000  0.44570000  1.0
  H  H688  1  0.74670000  0.51840000  0.46670000  1.0
  H  H689  1  0.69620000  0.47510000  0.47990000  1.0
  H  H690  1  0.25150000  0.90610000  0.87100000  1.0
  H  H691  1  0.27760000  0.89670000  0.87270000  1.0
  H  H692  1  0.30630000  0.94670000  0.89600000  1.0
  H  H693  1  0.16120000  0.78270000  0.96910000  1.0
  H  H694  1  0.22410000  0.83350000  0.98500000  1.0
  H  H695  1  0.19410000  0.78310000  0.96100000  1.0
  H  H696  1  0.08780000  0.75080000  0.99100000  1.0
  H  H697  1  0.04840000  0.72350000  0.01170000  1.0
  H  H698  1  0.10870000  0.78620000  0.02290000  1.0
  H  H699  1  0.01530000  0.81420000  0.96090000  1.0
  H  H700  1  0.04190000  0.84120000  0.99630000  1.0
  H  H701  1  0.98070000  0.77950000  0.98340000  1.0
  H  H702  1  0.02630000  0.84130000  0.89200000  1.0
  H  H703  1  0.01880000  0.84830000  0.86070000  1.0
  H  H704  1  0.06710000  0.89970000  0.88900000  1.0
  H  H705  1  0.18800000  0.90380000  0.83980000  1.0
  H  H706  1  0.21290000  0.95620000  0.84210000  1.0
  H  H707  1  0.16500000  0.90510000  0.81370000  1.0
  H  H708  1  0.76810000  0.97370000  0.41800000  1.0
  H  H709  1  0.79020000  0.01500000  0.40040000  1.0
  H  H710  1  0.75670000  0.99760000  0.42310000  1.0
  H  H711  1  0.56290000  0.81430000  0.31020000  1.0
  H  H712  1  0.56960000  0.85220000  0.32500000  1.0
  H  H713  1  0.60280000  0.86950000  0.30210000  1.0
  H  H714  1  0.72360000  0.00360000  0.29240000  1.0
  H  H715  1  0.73870000  0.98880000  0.31110000  1.0
  H  H716  1  0.67710000  0.94450000  0.29640000  1.0
  H  H717  1  0.70880000  0.03730000  0.41870000  1.0
  H  H718  1  0.66200000  0.97430000  0.40990000  1.0
  H  H719  1  0.72290000  0.01630000  0.42360000  1.0
  H  H720  1  0.66190000  0.71380000  0.38510000  1.0
  H  H721  1  0.72100000  0.75140000  0.38800000  1.0
  H  H722  1  0.69870000  0.73610000  0.41680000  1.0
  H  H723  1  0.79940000  0.94210000  0.43150000  1.0
  H  H724  1  0.82020000  0.94000000  0.45880000  1.0
  H  H725  1  0.84550000  0.95790000  0.43120000  1.0
  H  H726  1  0.20760000  0.49940000  0.31420000  1.0
  H  H727  1  0.20300000  0.48380000  0.34460000  1.0
  H  H728  1  0.16870000  0.44020000  0.31310000  1.0
  H  H729  1  0.00010000  0.38640000  0.33070000  1.0
  H  H730  1  0.98380000  0.33950000  0.32890000  1.0
  H  H731  1  0.01770000  0.38390000  0.36000000  1.0
  H  H732  1  0.95630000  0.40450000  0.30100000  1.0
  H  H733  1  0.93480000  0.41860000  0.29840000  1.0
  H  H734  1  0.90350000  0.36700000  0.27530000  1.0
  H  H735  1  0.05410000  0.52560000  0.20270000  1.0
  H  H736  1  0.99120000  0.47490000  0.18670000  1.0
  H  H737  1  0.02210000  0.52720000  0.20850000  1.0
  H  H738  1  0.06860000  0.38110000  0.42110000  1.0
  H  H739  1  0.11670000  0.43510000  0.41140000  1.0
  H  H740  1  0.05670000  0.39540000  0.39810000  1.0
  H  H741  1  0.05800000  0.29610000  0.30530000  1.0
  H  H742  1  0.04200000  0.31300000  0.29200000  1.0
  H  H743  1  0.10380000  0.35690000  0.30470000  1.0
  H  H744  1  0.93510000  0.82560000  0.64210000  1.0
  H  H745  1  0.91940000  0.83670000  0.61910000  1.0
  H  H746  1  0.98080000  0.87930000  0.63170000  1.0
  H  H747  1  0.92200000  0.74180000  0.52160000  1.0
  H  H748  1  0.96850000  0.80320000  0.52250000  1.0
  H  H749  1  0.90700000  0.76020000  0.50980000  1.0
  H  H750  1  0.87780000  0.64670000  0.50930000  1.0
  H  H751  1  0.82180000  0.58960000  0.48620000  1.0
  H  H752  1  0.86970000  0.60750000  0.49480000  1.0
  H  H753  1  0.76290000  0.49650000  0.59500000  1.0
  H  H754  1  0.76760000  0.47270000  0.57350000  1.0
  H  H755  1  0.71820000  0.45250000  0.56370000  1.0
  H  H756  1  0.02450000  0.84480000  0.80490000  1.0
  H  H757  1  0.03350000  0.86540000  0.77610000  1.0
  H  H758  1  0.01800000  0.87300000  0.80140000  1.0
  H  H759  1  0.26050000  0.06930000  0.86640000  1.0
  H  H760  1  0.24320000  0.02160000  0.86200000  1.0
  H  H761  1  0.22620000  0.02850000  0.88650000  1.0
  H  H762  1  0.66840000  0.17930000  0.05310000  1.0
  H  H763  1  0.68590000  0.20290000  0.08820000  1.0
  H  H764  1  0.69340000  0.23140000  0.06540000  1.0
  H  H765  1  0.46360000  0.07520000  0.06040000  1.0
  H  H766  1  0.50990000  0.13750000  0.07440000  1.0
  H  H767  1  0.49590000  0.10300000  0.09490000  1.0
  H  H768  1  0.36040000  0.96670000  0.01470000  1.0
  H  H769  1  0.29660000  0.91040000  0.00160000  1.0
  H  H770  1  0.32860000  0.96170000  0.99150000  1.0
  H  H771  1  0.34850000  0.88530000  0.89520000  1.0
  H  H772  1  0.31420000  0.88360000  0.88260000  1.0
  H  H773  1  0.28610000  0.83440000  0.89350000  1.0
  H  H774  1  0.45210000  0.06070000  0.48860000  1.0
  H  H775  1  0.45790000  0.07600000  0.45790000  1.0
  H  H776  1  0.49470000  0.12110000  0.48920000  1.0
  H  H777  1  0.64460000  0.14690000  0.47390000  1.0
  H  H778  1  0.66950000  0.19930000  0.47620000  1.0
  H  H779  1  0.63350000  0.15490000  0.44480000  1.0
  H  H780  1  0.12400000  0.62080000  0.08520000  1.0
  H  H781  1  0.13930000  0.65940000  0.11090000  1.0
  H  H782  1  0.17640000  0.68380000  0.08900000  1.0
  H  H783  1  0.07980000  0.70360000  0.04120000  1.0
  H  H784  1  0.01850000  0.64170000  0.02860000  1.0
  H  H785  1  0.05900000  0.66990000  0.00850000  1.0
  H  H786  1  0.91000000  0.53630000  0.96490000  1.0
  H  H787  1  0.85180000  0.49850000  0.96550000  1.0
  H  H788  1  0.86430000  0.50070000  0.93420000  1.0
  H  H789  1  0.77790000  0.31050000  0.94900000  1.0
  H  H790  1  0.74390000  0.29780000  0.92090000  1.0
  H  H791  1  0.73520000  0.29840000  0.95320000  1.0
  H  H792  1  0.82380000  0.27550000  0.02650000  1.0
  H  H793  1  0.83310000  0.29370000  0.99660000  1.0
  H  H794  1  0.81180000  0.29790000  0.01850000  1.0
  H  H795  1  0.05470000  0.51290000  0.08520000  1.0
  H  H796  1  0.04430000  0.47100000  0.08810000  1.0
  H  H797  1  0.02250000  0.47700000  0.10770000  1.0
  H  H798  1  0.59520000  0.59650000  0.29870000  1.0
  H  H799  1  0.59260000  0.61390000  0.27190000  1.0
  H  H800  1  0.63440000  0.65660000  0.30380000  1.0
  H  H801  1  0.78360000  0.70650000  0.24930000  1.0
  H  H802  1  0.80280000  0.75530000  0.25910000  1.0
  H  H803  1  0.76120000  0.71210000  0.22710000  1.0
  H  H804  1  0.83790000  0.70210000  0.27280000  1.0
  H  H805  1  0.87700000  0.70820000  0.27300000  1.0
  H  H806  1  0.89650000  0.75220000  0.29590000  1.0
  H  H807  1  0.78910000  0.59290000  0.37200000  1.0
  H  H808  1  0.85060000  0.65340000  0.38720000  1.0
  H  H809  1  0.83570000  0.61330000  0.36380000  1.0
  H  H810  1  0.65600000  0.51960000  0.42420000  1.0
  H  H811  1  0.70350000  0.55950000  0.40860000  1.0
  H  H812  1  0.65280000  0.49610000  0.39490000  1.0
  H  H813  1  0.55020000  0.51920000  0.33440000  1.0
  H  H814  1  0.56450000  0.54350000  0.36880000  1.0
  H  H815  1  0.51470000  0.48010000  0.35520000  1.0
  H  H816  1  0.99000000  0.80670000  0.41050000  1.0
  H  H817  1  0.94350000  0.78530000  0.38940000  1.0
  H  H818  1  0.92900000  0.74500000  0.40300000  1.0
  H  H819  1  0.96550000  0.71930000  0.28580000  1.0
  H  H820  1  0.90730000  0.66500000  0.28970000  1.0
  H  H821  1  0.91980000  0.70450000  0.27710000  1.0
  H  H822  1  0.05510000  0.76650000  0.26760000  1.0
  H  H823  1  0.09070000  0.80170000  0.24560000  1.0
  H  H824  1  0.08180000  0.76240000  0.25340000  1.0
  H  H825  1  0.28630000  0.96290000  0.35460000  1.0
  H  H826  1  0.29030000  0.93960000  0.33150000  1.0
  H  H827  1  0.29860000  0.97860000  0.32380000  1.0
  H  H828  1  0.30770000  0.02010000  0.41840000  1.0
  H  H829  1  0.33380000  0.06990000  0.43950000  1.0
  H  H830  1  0.33060000  0.03760000  0.45380000  1.0
  H  H831  1  0.10860000  0.90170000  0.45610000  1.0
  H  H832  1  0.14490000  0.92330000  0.48760000  1.0
  H  H833  1  0.15400000  0.96130000  0.47650000  1.0
  H  H834  1  0.15770000  0.76830000  0.22620000  1.0
  H  H835  1  0.17400000  0.78660000  0.26200000  1.0
  H  H836  1  0.12290000  0.75980000  0.24250000  1.0
  H  H837  1  0.29120000  0.99470000  0.24770000  1.0
  H  H838  1  0.24360000  0.96380000  0.26200000  1.0
  H  H839  1  0.29490000  0.99090000  0.28120000  1.0
  H  H840  1  0.35970000  0.09920000  0.18470000  1.0
  H  H841  1  0.31740000  0.04690000  0.19650000  1.0
  H  H842  1  0.37840000  0.08790000  0.20390000  1.0
  H  H843  1  0.30030000  0.95930000  0.07500000  1.0
  H  H844  1  0.28540000  0.97950000  0.06850000  1.0
  H  H845  1  0.34660000  0.02070000  0.07590000  1.0
  H  H846  1  0.22760000  0.83970000  0.06310000  1.0
  H  H847  1  0.21800000  0.79860000  0.05080000  1.0
  H  H848  1  0.17010000  0.78070000  0.04240000  1.0
  H  H849  1  0.09660000  0.66260000  0.12600000  1.0
  H  H850  1  0.14580000  0.71020000  0.15520000  1.0
  H  H851  1  0.09900000  0.69400000  0.14660000  1.0
  H  H852  1  0.46030000  0.16980000  0.09150000  1.0
  H  H853  1  0.41720000  0.10810000  0.08530000  1.0
  H  H854  1  0.45620000  0.14800000  0.11820000  1.0
  H  H855  1  0.26980000  0.07180000  0.12940000  1.0
  H  H856  1  0.28300000  0.05860000  0.15240000  1.0
  H  H857  1  0.24540000  0.01970000  0.11930000  1.0
  H  H858  1  0.23220000  0.09780000  0.10700000  1.0
  H  H859  1  0.17730000  0.05450000  0.08140000  1.0
  H  H860  1  0.20270000  0.10320000  0.10350000  1.0
  H  H861  1  0.24840000  0.17560000  0.00080000  1.0
  H  H862  1  0.28700000  0.18260000  0.99480000  1.0
  H  H863  1  0.31110000  0.23010000  0.01740000  1.0
  H  H864  1  0.41250000  0.26490000  0.98680000  1.0
  H  H865  1  0.40800000  0.23730000  0.95950000  1.0
  H  H866  1  0.46270000  0.30100000  0.97370000  1.0
  H  H867  1  0.51340000  0.24410000  0.05430000  1.0
  H  H868  1  0.55170000  0.28000000  0.03330000  1.0
  H  H869  1  0.49520000  0.21630000  0.02010000  1.0
  H  H870  1  0.53510000  0.38050000  0.62900000  1.0
  H  H871  1  0.52400000  0.40490000  0.62730000  1.0
  H  H872  1  0.55070000  0.41030000  0.60400000  1.0
  H  H873  1  0.31360000  0.19210000  0.53090000  1.0
  H  H874  1  0.34850000  0.23910000  0.51500000  1.0
  H  H875  1  0.32210000  0.23310000  0.53900000  1.0
  H  H876  1  0.25980000  0.09680000  0.50900000  1.0
  H  H877  1  0.21180000  0.03670000  0.48830000  1.0
  H  H878  1  0.26330000  0.08580000  0.47710000  1.0
  H  H879  1  0.35330000  0.05440000  0.53910000  1.0
  H  H880  1  0.34490000  0.04560000  0.50370000  1.0
  H  H881  1  0.29610000  0.99730000  0.51660000  1.0
  H  H882  1  0.44930000  0.13430000  0.60800000  1.0
  H  H883  1  0.48760000  0.15810000  0.63930000  1.0
  H  H884  1  0.51070000  0.17810000  0.61100000  1.0
  H  H885  1  0.56400000  0.34820000  0.66020000  1.0
  H  H886  1  0.61410000  0.37080000  0.65790000  1.0
  H  H887  1  0.59140000  0.35130000  0.68630000  1.0
  H  H888  1  0.05570000  0.35010000  0.08200000  1.0
  H  H889  1  0.11460000  0.38980000  0.09960000  1.0
  H  H890  1  0.07450000  0.33360000  0.07690000  1.0
  H  H891  1  0.00410000  0.25270000  0.18980000  1.0
  H  H892  1  0.02720000  0.24460000  0.17500000  1.0
  H  H893  1  0.06740000  0.30070000  0.19790000  1.0
  H  H894  1  0.21120000  0.43120000  0.20760000  1.0
  H  H895  1  0.17770000  0.42760000  0.18890000  1.0
  H  H896  1  0.14810000  0.38070000  0.20360000  1.0
  H  H897  1  0.11860000  0.29010000  0.08130000  1.0
  H  H898  1  0.06440000  0.25210000  0.09010000  1.0
  H  H899  1  0.09270000  0.29930000  0.07640000  1.0
  H  H900  1  0.82870000  0.27680000  0.11490000  1.0
  H  H901  1  0.86340000  0.33300000  0.11200000  1.0
  H  H902  1  0.81930000  0.28190000  0.08320000  1.0
  H  H903  1  0.01060000  0.36790000  0.06850000  1.0
  H  H904  1  0.98120000  0.36140000  0.04120000  1.0
  H  H905  1  0.02670000  0.41430000  0.06880000  1.0
  H  H906  1  0.68520000  0.89340000  0.18580000  1.0
  H  H907  1  0.63920000  0.85840000  0.15540000  1.0
  H  H908  1  0.62710000  0.85560000  0.18690000  1.0
  H  H909  1  0.55570000  0.66940000  0.16930000  1.0
  H  H910  1  0.51060000  0.65490000  0.17110000  1.0
  H  H911  1  0.52390000  0.65770000  0.14000000  1.0
  H  H912  1  0.60350000  0.65530000  0.19900000  1.0
  H  H913  1  0.62020000  0.63640000  0.20160000  1.0
  H  H914  1  0.59170000  0.62820000  0.22470000  1.0
  H  H915  1  0.82290000  0.85140000  0.29730000  1.0
  H  H916  1  0.78820000  0.80450000  0.31330000  1.0
  H  H917  1  0.81870000  0.81360000  0.29150000  1.0
  H  H918  1  0.46000000  0.64750000  0.07890000  1.0
  H  H919  1  0.52370000  0.70530000  0.08860000  1.0
  H  H920  1  0.49730000  0.65860000  0.10190000  1.0
  H  H921  1  0.49080000  0.75270000  0.19470000  1.0
  H  H922  1  0.52100000  0.75000000  0.20800000  1.0
  H  H923  1  0.55220000  0.79910000  0.19530000  1.0
  H  H924  1  0.68350000  0.29300000  0.85790000  1.0
  H  H925  1  0.71760000  0.30030000  0.88090000  1.0
  H  H926  1  0.74760000  0.34910000  0.86830000  1.0
  H  H927  1  0.72020000  0.40040000  0.97840000  1.0
  H  H928  1  0.78070000  0.44600000  0.97750000  1.0
  H  H929  1  0.75040000  0.39720000  0.99020000  1.0
  H  H930  1  0.63740000  0.36850000  0.99070000  1.0
  H  H931  1  0.60340000  0.33560000  0.01380000  1.0
  H  H932  1  0.61270000  0.37490000  0.00520000  1.0
  H  H933  1  0.40150000  0.16790000  0.90500000  1.0
  H  H934  1  0.39920000  0.19410000  0.92650000  1.0
  H  H935  1  0.38880000  0.15450000  0.93630000  1.0
  H  H936  1  0.53990000  0.21960000  0.69510000  1.0
  H  H937  1  0.58930000  0.25740000  0.72390000  1.0
  H  H938  1  0.57160000  0.21660000  0.69860000  1.0
  H  H939  1  0.70290000  0.39410000  0.63360000  1.0
  H  H940  1  0.65960000  0.38120000  0.63800000  1.0
  H  H941  1  0.64200000  0.33970000  0.61350000  1.0
  H  H942  1  0.62620000  0.61530000  0.44690000  1.0
  H  H943  1  0.61470000  0.59770000  0.41180000  1.0
  H  H944  1  0.66600000  0.62800000  0.43460000  1.0
  H  H945  1  0.51480000  0.40320000  0.43960000  1.0
  H  H946  1  0.56310000  0.43550000  0.42560000  1.0
  H  H947  1  0.50810000  0.40100000  0.40510000  1.0
  H  H948  1  0.45200000  0.34570000  0.48530000  1.0
  H  H949  1  0.40880000  0.29500000  0.49840000  1.0
  H  H950  1  0.47020000  0.33710000  0.50850000  1.0
  H  H951  1  0.49010000  0.45330000  0.60480000  1.0
  H  H952  1  0.50100000  0.43160000  0.61740000  1.0
  H  H953  1  0.44090000  0.39260000  0.60650000  1.0
  H  H954  1  0.07210000  0.96350000  0.01140000  1.0
  H  H955  1  0.11810000  0.00000000  0.04210000  1.0
  H  H956  1  0.13190000  0.00550000  0.01080000  1.0
  H  H957  1  0.17300000  0.17070000  0.02610000  1.0
  H  H958  1  0.22310000  0.19330000  0.02380000  1.0
  H  H959  1  0.21010000  0.18870000  0.05520000  1.0
  H  H960  1  0.87920000  0.46440000  0.50320000  1.0
  H  H961  1  0.84060000  0.45150000  0.47990000  1.0
  H  H962  1  0.81620000  0.40520000  0.49260000  1.0
  H  H963  1  0.79640000  0.33760000  0.37620000  1.0
  H  H964  1  0.85830000  0.38690000  0.37680000  1.0
  H  H965  1  0.83010000  0.33860000  0.38910000  1.0
  H  H966  1  0.96370000  0.42860000  0.37370000  1.0
  H  H967  1  0.00150000  0.46700000  0.35330000  1.0
  H  H968  1  0.99930000  0.43350000  0.36360000  1.0
  H  H969  1  0.18950000  0.63850000  0.46740000  1.0
  H  H970  1  0.20220000  0.62310000  0.44610000  1.0
  H  H971  1  0.20160000  0.65480000  0.43680000  1.0
  H  H972  1  0.22450000  0.75100000  0.54830000  1.0
  H  H973  1  0.20630000  0.70290000  0.53940000  1.0
  H  H974  1  0.20210000  0.72060000  0.51390000  1.0
  H  H975  1  0.98710000  0.57230000  0.54180000  1.0
  H  H976  1  0.02900000  0.61710000  0.57330000  1.0
  H  H977  1  0.02300000  0.63070000  0.54550000  1.0
  H  H978  1  0.90350000  0.70220000  0.99870000  1.0
  H  H979  1  0.88610000  0.65800000  0.97870000  1.0
  H  H980  1  0.84340000  0.64720000  0.97780000  1.0
  H  H981  1  0.79350000  0.54280000  0.07710000  1.0
  H  H982  1  0.74470000  0.50380000  0.04750000  1.0
  H  H983  1  0.78790000  0.51500000  0.04910000  1.0
  H  H984  1  0.79790000  0.57070000  0.13580000  1.0
  H  H985  1  0.79180000  0.56480000  0.16880000  1.0
  H  H986  1  0.74780000  0.54370000  0.14430000  1.0
  H  H987  1  0.90710000  0.77910000  0.19620000  1.0
  H  H988  1  0.84660000  0.73380000  0.19720000  1.0
  H  H989  1  0.88670000  0.75050000  0.22240000  1.0
  H  H990  1  0.98040000  0.90460000  0.13640000  1.0
  H  H991  1  0.94050000  0.84910000  0.14400000  1.0
  H  H992  1  0.00390000  0.89880000  0.15670000  1.0
  H  H993  1  0.98080000  0.81520000  0.03100000  1.0
  H  H994  1  0.95650000  0.82530000  0.02100000  1.0
  H  H995  1  0.01990000  0.87510000  0.03460000  1.0
  H  H996  1  0.69330000  0.60380000  0.18330000  1.0
  H  H997  1  0.71470000  0.60410000  0.15820000  1.0
  H  H998  1  0.75500000  0.65800000  0.18400000  1.0
  H  H999  1  0.78070000  0.56650000  0.24620000  1.0
  H  H1000  1  0.83500000  0.62470000  0.24230000  1.0
  H  H1001  1  0.79550000  0.57260000  0.21530000  1.0
  H  H1002  1  0.73350000  0.50110000  0.28860000  1.0
  H  H1003  1  0.69830000  0.44390000  0.28900000  1.0
  H  H1004  1  0.73760000  0.49100000  0.31940000  1.0
  H  H1005  1  0.53710000  0.39170000  0.32340000  1.0
  H  H1006  1  0.56040000  0.39190000  0.35070000  1.0
  H  H1007  1  0.52140000  0.34520000  0.32000000  1.0
  H  H1008  1  0.47990000  0.39830000  0.28760000  1.0
  H  H1009  1  0.43010000  0.36960000  0.26390000  1.0
  H  H1010  1  0.46240000  0.41620000  0.29300000  1.0
  H  H1011  1  0.59830000  0.55440000  0.20690000  1.0
  H  H1012  1  0.57670000  0.56430000  0.22160000  1.0
  H  H1013  1  0.53870000  0.51520000  0.19270000  1.0
  H  H1014  1  0.73170000  0.45790000  0.38940000  1.0
  H  H1015  1  0.71340000  0.47540000  0.38740000  1.0
  H  H1016  1  0.74020000  0.48270000  0.36310000  1.0
  H  H1017  1  0.50530000  0.25300000  0.29650000  1.0
  H  H1018  1  0.53620000  0.29820000  0.27980000  1.0
  H  H1019  1  0.50910000  0.29030000  0.30400000  1.0
  H  H1020  1  0.40080000  0.08550000  0.26050000  1.0
  H  H1021  1  0.45310000  0.14960000  0.27050000  1.0
  H  H1022  1  0.41210000  0.11600000  0.29050000  1.0
  H  H1023  1  0.54070000  0.11570000  0.34100000  1.0
  H  H1024  1  0.52050000  0.08900000  0.30590000  1.0
  H  H1025  1  0.47930000  0.05520000  0.32590000  1.0
  H  H1026  1  0.66030000  0.22340000  0.38790000  1.0
  H  H1027  1  0.70140000  0.25220000  0.41940000  1.0
  H  H1028  1  0.71930000  0.26170000  0.38940000  1.0
  H  H1029  1  0.83740000  0.46340000  0.43400000  1.0
  H  H1030  1  0.78980000  0.44500000  0.43560000  1.0
  H  H1031  1  0.80600000  0.45260000  0.40500000  1.0
  H  H1032  1  0.33020000  0.92170000  0.29050000  1.0
  H  H1033  1  0.39190000  0.97720000  0.30910000  1.0
  H  H1034  1  0.35200000  0.97020000  0.30820000  1.0
  H  H1035  1  0.42820000  0.05760000  0.19800000  1.0
  H  H1036  1  0.44140000  0.09380000  0.22440000  1.0
  H  H1037  1  0.48030000  0.09960000  0.22570000  1.0
  H  H1038  1  0.40220000  0.00920000  0.13440000  1.0
  H  H1039  1  0.44550000  0.02690000  0.12280000  1.0
  H  H1040  1  0.39680000  0.00030000  0.09950000  1.0
  H  H1041  1  0.32440000  0.82520000  0.07280000  1.0
  H  H1042  1  0.31740000  0.81220000  0.10440000  1.0
  H  H1043  1  0.26990000  0.78730000  0.08100000  1.0
  H  H1044  1  0.23510000  0.72190000  0.14760000  1.0
  H  H1045  1  0.26270000  0.72220000  0.17070000  1.0
  H  H1046  1  0.19900000  0.67270000  0.16170000  1.0
  H  H1047  1  0.25590000  0.81020000  0.26930000  1.0
  H  H1048  1  0.22000000  0.75330000  0.27170000  1.0
  H  H1049  1  0.28370000  0.80380000  0.27890000  1.0
  H  H1050  1  0.11950000  0.24850000  0.15460000  1.0
  H  H1051  1  0.09510000  0.22240000  0.11910000  1.0
  H  H1052  1  0.08970000  0.19370000  0.14040000  1.0
  H  H1053  1  0.30790000  0.33880000  0.12150000  1.0
  H  H1054  1  0.26090000  0.27590000  0.10940000  1.0
  H  H1055  1  0.26690000  0.30590000  0.08900000  1.0
  H  H1056  1  0.40320000  0.41220000  0.16300000  1.0
  H  H1057  1  0.46330000  0.45160000  0.17510000  1.0
  H  H1058  1  0.41420000  0.39130000  0.17750000  1.0
  H  H1059  1  0.44560000  0.48470000  0.29890000  1.0
  H  H1060  1  0.45440000  0.45810000  0.29930000  1.0
  H  H1061  1  0.50270000  0.51930000  0.29880000  1.0
  H  H1062  1  0.36570000  0.47370000  0.31500000  1.0
  H  H1063  1  0.34190000  0.48120000  0.32950000  1.0
  H  H1064  1  0.32190000  0.43290000  0.33260000  1.0
  H  H1065  1  0.15180000  0.31200000  0.21580000  1.0
  H  H1066  1  0.12920000  0.28710000  0.24330000  1.0
  H  H1067  1  0.14870000  0.33500000  0.24010000  1.0
  H  H1068  1  0.14990000  0.73190000  0.70560000  1.0
  H  H1069  1  0.11020000  0.70980000  0.72480000  1.0
  H  H1070  1  0.16640000  0.74330000  0.74090000  1.0
  H  H1071  1  0.24730000  0.93710000  0.75140000  1.0
  H  H1072  1  0.25540000  0.93040000  0.78260000  1.0
  H  H1073  1  0.19930000  0.89720000  0.76670000  1.0
  H  H1074  1  0.06880000  0.77640000  0.78000000  1.0
  H  H1075  1  0.07240000  0.76130000  0.75010000  1.0
  H  H1076  1  0.11930000  0.82290000  0.76740000  1.0
  H  H1077  1  0.20990000  0.79120000  0.82850000  1.0
  H  H1078  1  0.24790000  0.83800000  0.81230000  1.0
  H  H1079  1  0.20070000  0.77710000  0.79340000  1.0
  H  H1080  1  0.22320000  0.83810000  0.55190000  1.0
  H  H1081  1  0.16700000  0.77900000  0.53040000  1.0
  H  H1082  1  0.21810000  0.80130000  0.53740000  1.0
  H  H1083  1  0.13210000  0.70060000  0.64270000  1.0
  H  H1084  1  0.13860000  0.67980000  0.61980000  1.0
  H  H1085  1  0.08570000  0.65450000  0.61240000  1.0
  H  H1086  1  0.60660000  0.29240000  0.79180000  1.0
  H  H1087  1  0.64160000  0.29700000  0.78080000  1.0
  H  H1088  1  0.64440000  0.33130000  0.77150000  1.0
  H  H1089  1  0.83060000  0.49990000  0.88630000  1.0
  H  H1090  1  0.84510000  0.51620000  0.85570000  1.0
  H  H1091  1  0.84230000  0.48230000  0.86620000  1.0
  H  H1092  1  0.84470000  0.54370000  0.94820000  1.0
  H  H1093  1  0.86360000  0.56520000  0.98380000  1.0
  H  H1094  1  0.87180000  0.59650000  0.96350000  1.0
  H  H1095  1  0.64860000  0.44590000  0.97150000  1.0
  H  H1096  1  0.69550000  0.50880000  0.98370000  1.0
  H  H1097  1  0.68640000  0.47790000  0.00510000  1.0
  H  H1098  1  0.85250000  0.43140000  0.81250000  1.0
  H  H1099  1  0.79470000  0.38330000  0.81840000  1.0
  H  H1100  1  0.84140000  0.44330000  0.83870000  1.0
  H  H1101  1  0.74730000  0.44200000  0.73810000  1.0
  H  H1102  1  0.75000000  0.45800000  0.77100000  1.0
  H  H1103  1  0.70090000  0.39620000  0.75310000  1.0
  H  H1104  1  0.20700000  0.56490000  0.39050000  1.0
  H  H1105  1  0.19970000  0.58060000  0.41730000  1.0
  H  H1106  1  0.15090000  0.51920000  0.39850000  1.0
  H  H1107  1  0.09960000  0.57800000  0.31980000  1.0
  H  H1108  1  0.05400000  0.53150000  0.33470000  1.0
  H  H1109  1  0.10280000  0.59300000  0.35320000  1.0
  H  H1110  1  0.13150000  0.62220000  0.26890000  1.0
  H  H1111  1  0.16440000  0.67820000  0.26780000  1.0
  H  H1112  1  0.12510000  0.63030000  0.23780000  1.0
  H  H1113  1  0.33210000  0.73710000  0.23360000  1.0
  H  H1114  1  0.30590000  0.73240000  0.20510000  1.0
  H  H1115  1  0.34550000  0.78180000  0.23430000  1.0
  H  H1116  1  0.28040000  0.47550000  0.32030000  1.0
  H  H1117  1  0.24260000  0.46650000  0.33190000  1.0
  H  H1118  1  0.28340000  0.48200000  0.35500000  1.0
  H  H1119  1  0.10590000  0.23950000  0.30880000  1.0
  H  H1120  1  0.11880000  0.25680000  0.27840000  1.0
  H  H1121  1  0.16030000  0.27380000  0.30230000  1.0
  H  H1122  1  0.88470000  0.83160000  0.01090000  1.0
  H  H1123  1  0.90230000  0.81410000  0.01700000  1.0
  H  H1124  1  0.87200000  0.80660000  0.03800000  1.0
  H  H1125  1  0.09680000  0.03640000  0.11160000  1.0
  H  H1126  1  0.06450000  0.99010000  0.12760000  1.0
  H  H1127  1  0.09900000  0.00410000  0.10710000  1.0
  H  H1128  1  0.15430000  0.13960000  0.10630000  1.0
  H  H1129  1  0.20500000  0.20340000  0.11380000  1.0
  H  H1130  1  0.16290000  0.17140000  0.13310000  1.0
  H  H1131  1  0.04670000  0.15150000  0.03680000  1.0
  H  H1132  1  0.06840000  0.18580000  0.06940000  1.0
  H  H1133  1  0.10740000  0.21390000  0.04830000  1.0
  H  H1134  1  0.53650000  0.04790000  0.10860000  1.0
  H  H1135  1  0.50000000  0.04210000  0.11810000  1.0
  H  H1136  1  0.49450000  0.00530000  0.12640000  1.0
  H  H1137  1  0.32930000  0.85540000  0.00230000  1.0
  H  H1138  1  0.30670000  0.83050000  0.02980000  1.0
  H  H1139  1  0.31130000  0.86650000  0.02140000  1.0
  H  H1140  1  0.46120000  0.37600000  0.99680000  1.0
  H  H1141  1  0.47160000  0.36070000  0.02010000  1.0
  H  H1142  1  0.41260000  0.32360000  0.00740000  1.0
  H  H1143  1  0.46140000  0.42020000  0.12380000  1.0
  H  H1144  1  0.51010000  0.48150000  0.12320000  1.0
  H  H1145  1  0.44950000  0.44100000  0.11090000  1.0
  H  H1146  1  0.55490000  0.59000000  0.12630000  1.0
  H  H1147  1  0.61370000  0.64820000  0.14670000  1.0
  H  H1148  1  0.56990000  0.63570000  0.13640000  1.0
  H  H1149  1  0.67110000  0.72210000  0.03260000  1.0
  H  H1150  1  0.67700000  0.75610000  0.05390000  1.0
  H  H1151  1  0.71800000  0.76480000  0.06320000  1.0
  H  H1152  1  0.70270000  0.67620000  0.95170000  1.0
  H  H1153  1  0.66350000  0.66690000  0.96060000  1.0
  H  H1154  1  0.70670000  0.68820000  0.98610000  1.0
  H  H1155  1  0.53050000  0.44530000  0.95820000  1.0
  H  H1156  1  0.54380000  0.45570000  0.92670000  1.0
  H  H1157  1  0.58520000  0.47750000  0.95450000  1.0
  H  H1158  1  0.20350000  0.90480000  0.50130000  1.0
  H  H1159  1  0.17930000  0.90740000  0.52130000  1.0
  H  H1160  1  0.16940000  0.86560000  0.52220000  1.0
  H  H1161  1  0.96570000  0.71640000  0.42290000  1.0
  H  H1162  1  0.95630000  0.69720000  0.45250000  1.0
  H  H1163  1  0.96590000  0.73880000  0.45090000  1.0
  H  H1164  1  0.93490000  0.66210000  0.36420000  1.0
  H  H1165  1  0.89600000  0.62300000  0.33120000  1.0
  H  H1166  1  0.89940000  0.60350000  0.35570000  1.0
  H  H1167  1  0.08290000  0.71090000  0.30380000  1.0
  H  H1168  1  0.03660000  0.64940000  0.30280000  1.0
  H  H1169  1  0.02810000  0.66430000  0.27760000  1.0
  H  H1170  1  0.26820000  0.84400000  0.36360000  1.0
  H  H1171  1  0.20510000  0.79650000  0.35600000  1.0
  H  H1172  1  0.24210000  0.84720000  0.34330000  1.0
  H  H1173  1  0.28420000  0.94980000  0.46900000  1.0
  H  H1174  1  0.30430000  0.93550000  0.47900000  1.0
  H  H1175  1  0.34050000  0.98530000  0.46540000  1.0
  H  H1176  1  0.92050000  0.51000000  0.31670000  1.0
  H  H1177  1  0.94590000  0.55650000  0.34180000  1.0
  H  H1178  1  0.97400000  0.57100000  0.31600000  1.0
  H  H1179  1  0.82030000  0.53450000  0.25380000  1.0
  H  H1180  1  0.88240000  0.59270000  0.25770000  1.0
  H  H1181  1  0.85730000  0.58020000  0.28470000  1.0
  H  H1182  1  0.71250000  0.44490000  0.21140000  1.0
  H  H1183  1  0.65490000  0.40930000  0.21100000  1.0
  H  H1184  1  0.67160000  0.41820000  0.18060000  1.0
  H  H1185  1  0.56830000  0.21370000  0.17660000  1.0
  H  H1186  1  0.54120000  0.20970000  0.14930000  1.0
  H  H1187  1  0.52520000  0.20140000  0.18000000  1.0
  H  H1188  1  0.61070000  0.19230000  0.21240000  1.0
  H  H1189  1  0.60570000  0.16620000  0.23610000  1.0
  H  H1190  1  0.62320000  0.16940000  0.20700000  1.0
  H  H1191  1  0.84750000  0.39140000  0.29310000  1.0
  H  H1192  1  0.84270000  0.35510000  0.27840000  1.0
  H  H1193  1  0.82250000  0.34600000  0.30730000  1.0
  H  H1194  1  0.56850000  0.34230000  0.11060000  1.0
  H  H1195  1  0.58800000  0.32600000  0.11260000  1.0
  H  H1196  1  0.61960000  0.37710000  0.13690000  1.0
  H  H1197  1  0.45650000  0.20880000  0.20350000  1.0
  H  H1198  1  0.51840000  0.25640000  0.22020000  1.0
  H  H1199  1  0.48630000  0.20510000  0.19600000  1.0
  H  H1200  1  0.32500000  0.14030000  0.23950000  1.0
  H  H1201  1  0.37910000  0.18260000  0.22950000  1.0
  H  H1202  1  0.32550000  0.12160000  0.20950000  1.0
  H  H1203  1  0.27470000  0.19970000  0.15900000  1.0
  H  H1204  1  0.28310000  0.21460000  0.19410000  1.0
  H  H1205  1  0.22930000  0.15340000  0.17410000  1.0
  H  H1206  1  0.33550000  0.27240000  0.11210000  1.0
  H  H1207  1  0.33280000  0.28200000  0.08060000  1.0
  H  H1208  1  0.37230000  0.32990000  0.11060000  1.0
  H  H1209  1  0.52940000  0.40340000  0.06600000  1.0
  H  H1210  1  0.50940000  0.35420000  0.06440000  1.0
  H  H1211  1  0.54760000  0.40100000  0.09500000  1.0
  H  H1212  1  0.13120000  0.03970000  0.20950000  1.0
  H  H1213  1  0.16810000  0.08280000  0.19090000  1.0
  H  H1214  1  0.16200000  0.04380000  0.19180000  1.0
  H  H1215  1  0.35960000  0.23020000  0.30200000  1.0
  H  H1216  1  0.36940000  0.21700000  0.27560000  1.0
  H  H1217  1  0.37390000  0.25460000  0.27430000  1.0
  H  H1218  1  0.37480000  0.26780000  0.36560000  1.0
  H  H1219  1  0.40410000  0.32270000  0.37720000  1.0
  H  H1220  1  0.40080000  0.29730000  0.40050000  1.0
  H  H1221  1  0.25240000  0.25160000  0.42720000  1.0
  H  H1222  1  0.20780000  0.21300000  0.39560000  1.0
  H  H1223  1  0.20630000  0.18890000  0.41900000  1.0
  H  H1224  1  0.07430000  0.08750000  0.35240000  1.0
  H  H1225  1  0.05150000  0.09200000  0.32930000  1.0
  H  H1226  1  0.01100000  0.03730000  0.33830000  1.0
  H  H1227  1  0.04090000  0.98660000  0.23070000  1.0
  H  H1228  1  0.98160000  0.94830000  0.22830000  1.0
  H  H1229  1  0.02490000  0.00480000  0.22110000  1.0
  H  H1230  1  0.59390000  0.96490000  0.34540000  1.0
  H  H1231  1  0.60330000  0.97600000  0.38090000  1.0
  H  H1232  1  0.55330000  0.94930000  0.35960000  1.0
  H  H1233  1  0.71730000  0.18640000  0.37850000  1.0
  H  H1234  1  0.66650000  0.15150000  0.39060000  1.0
  H  H1235  1  0.71690000  0.17790000  0.41100000  1.0
  H  H1236  1  0.74920000  0.24020000  0.33700000  1.0
  H  H1237  1  0.77650000  0.28820000  0.32490000  1.0
  H  H1238  1  0.71380000  0.23670000  0.32250000  1.0
  H  H1239  1  0.68580000  0.14670000  0.20110000  1.0
  H  H1240  1  0.65880000  0.15510000  0.20070000  1.0
  H  H1241  1  0.72050000  0.20390000  0.20120000  1.0
  H  H1242  1  0.65870000  0.05070000  0.18500000  1.0
  H  H1243  1  0.65170000  0.01240000  0.17050000  1.0
  H  H1244  1  0.60030000  0.98930000  0.16740000  1.0
  H  H1245  1  0.59620000  0.93600000  0.28420000  1.0
  H  H1246  1  0.54380000  0.88590000  0.25670000  1.0
  H  H1247  1  0.59490000  0.90860000  0.25990000  1.0
  H  H1248  1  0.52630000  0.44430000  0.79440000  1.0
  H  H1249  1  0.48500000  0.38540000  0.77520000  1.0
  H  H1250  1  0.50240000  0.42550000  0.75910000  1.0
  H  H1251  1  0.68570000  0.49590000  0.74860000  1.0
  H  H1252  1  0.64780000  0.47280000  0.71740000  1.0
  H  H1253  1  0.63050000  0.43260000  0.73330000  1.0
  H  H1254  1  0.49640000  0.28880000  0.72000000  1.0
  H  H1255  1  0.51120000  0.32230000  0.74990000  1.0
  H  H1256  1  0.55550000  0.35190000  0.73260000  1.0
  H  H1257  1  0.46270000  0.38140000  0.67150000  1.0
  H  H1258  1  0.52570000  0.43560000  0.68770000  1.0
  H  H1259  1  0.48370000  0.40730000  0.70660000  1.0
  H  H1260  1  0.78620000  0.67130000  0.94810000  1.0
  H  H1261  1  0.74860000  0.63660000  0.96960000  1.0
  H  H1262  1  0.76390000  0.68070000  0.96260000  1.0
  H  H1263  1  0.55790000  0.48940000  0.85730000  1.0
  H  H1264  1  0.56000000  0.51880000  0.88020000  1.0
  H  H1265  1  0.54210000  0.47330000  0.88760000  1.0
  H  H1266  1  0.00060000  0.81480000  0.70820000  1.0
  H  H1267  1  0.01620000  0.86080000  0.71920000  1.0
  H  H1268  1  0.05980000  0.87290000  0.72850000  1.0
  H  H1269  1  0.11360000  0.94430000  0.61370000  1.0
  H  H1270  1  0.16050000  0.98940000  0.64430000  1.0
  H  H1271  1  0.11610000  0.97610000  0.63380000  1.0
  H  H1272  1  0.09550000  0.89650000  0.55180000  1.0
  H  H1273  1  0.08140000  0.87980000  0.51620000  1.0
  H  H1274  1  0.13300000  0.90830000  0.53650000  1.0
  H  H1275  1  0.97440000  0.67710000  0.52850000  1.0
  H  H1276  1  0.02510000  0.71180000  0.51630000  1.0
  H  H1277  1  0.97280000  0.68130000  0.49490000  1.0
  H  H1278  1  0.11890000  0.04000000  0.68750000  1.0
  H  H1279  1  0.06490000  0.97630000  0.68160000  1.0
  H  H1280  1  0.10460000  0.00270000  0.66130000  1.0
  H  H1281  1  0.20390000  0.00920000  0.76190000  1.0
  H  H1282  1  0.18700000  0.97900000  0.72900000  1.0
  H  H1283  1  0.14310000  0.94780000  0.74690000  1.0
  H  H1284  1  0.67440000  0.81650000  0.10950000  1.0
  H  H1285  1  0.66330000  0.78240000  0.08270000  1.0
  H  H1286  1  0.62070000  0.75240000  0.10150000  1.0
  H  H1287  1  0.75820000  0.77980000  0.18020000  1.0
  H  H1288  1  0.69680000  0.71930000  0.16530000  1.0
  H  H1289  1  0.73980000  0.74960000  0.14680000  1.0
  H  H1290  1  0.85330000  0.86260000  0.23110000  1.0
  H  H1291  1  0.91040000  0.89660000  0.23220000  1.0
  H  H1292  1  0.89250000  0.88730000  0.26220000  1.0
  H  H1293  1  0.00350000  0.09850000  0.26640000  1.0
  H  H1294  1  0.02730000  0.10080000  0.29490000  1.0
  H  H1295  1  0.04750000  0.11120000  0.26570000  1.0
  H  H1296  1  0.65520000  0.96010000  0.17970000  1.0
  H  H1297  1  0.63460000  0.91070000  0.16810000  1.0
  H  H1298  1  0.62700000  0.92840000  0.14500000  1.0
  H  H1299  1  0.43070000  0.79710000  0.19120000  1.0
  H  H1300  1  0.47840000  0.84040000  0.22160000  1.0
  H  H1301  1  0.47150000  0.85800000  0.19770000  1.0
  H  H1302  1  0.32070000  0.87380000  0.48910000  1.0
  H  H1303  1  0.29710000  0.88530000  0.48300000  1.0
  H  H1304  1  0.26860000  0.83400000  0.46200000  1.0
  H  H1305  1  0.42480000  0.98520000  0.38840000  1.0
  H  H1306  1  0.36250000  0.93690000  0.37240000  1.0
  H  H1307  1  0.39700000  0.99190000  0.39290000  1.0
  H  H1308  1  0.53330000  0.04800000  0.39370000  1.0
  H  H1309  1  0.58960000  0.09120000  0.38620000  1.0
  H  H1310  1  0.53830000  0.02980000  0.36690000  1.0
  H  H1311  1  0.61470000  0.00990000  0.46320000  1.0
  H  H1312  1  0.61640000  0.99900000  0.43060000  1.0
  H  H1313  1  0.66560000  0.05910000  0.45170000  1.0
  H  H1314  1  0.43930000  0.42790000  0.39140000  1.0
  H  H1315  1  0.42400000  0.38190000  0.38190000  1.0
  H  H1316  1  0.37890000  0.36810000  0.37360000  1.0
  H  H1317  1  0.35310000  0.32700000  0.49770000  1.0
  H  H1318  1  0.30070000  0.27690000  0.47020000  1.0
  H  H1319  1  0.34510000  0.28990000  0.47860000  1.0
  H  H1320  1  0.96440000  0.96120000  0.58520000  1.0
  H  H1321  1  0.95150000  0.97160000  0.61090000  1.0
  H  H1322  1  0.90520000  0.91260000  0.58900000  1.0
  H  H1323  1  0.83760000  0.96140000  0.54120000  1.0
  H  H1324  1  0.88690000  0.01010000  0.52860000  1.0
  H  H1325  1  0.83860000  0.94950000  0.50850000  1.0
  H  H1326  1  0.92860000  0.05490000  0.46490000  1.0
  H  H1327  1  0.96700000  0.11370000  0.46550000  1.0
  H  H1328  1  0.93350000  0.06990000  0.43420000  1.0
  H  H1329  1  0.13850000  0.17110000  0.44900000  1.0
  H  H1330  1  0.12310000  0.17700000  0.42090000  1.0
  H  H1331  1  0.15480000  0.21800000  0.45320000  1.0
  H  H1332  1  0.25100000  0.20270000  0.52650000  1.0
  H  H1333  1  0.20290000  0.16350000  0.49660000  1.0
  H  H1334  1  0.22060000  0.20670000  0.51850000  1.0
  H  H1335  1  0.07230000  0.03050000  0.58520000  1.0
  H  H1336  1  0.11710000  0.04380000  0.58810000  1.0
  H  H1337  1  0.13070000  0.08520000  0.60770000  1.0
  H  H1338  1  0.20220000  0.70350000  0.79870000  1.0
  H  H1339  1  0.15800000  0.67930000  0.77190000  1.0
  H  H1340  1  0.14720000  0.66940000  0.80380000  1.0
  H  H1341  1  0.04280000  0.46570000  0.74930000  1.0
  H  H1342  1  0.00380000  0.45630000  0.75910000  1.0
  H  H1343  1  0.01500000  0.46590000  0.72710000  1.0
  H  H1344  1  0.07070000  0.43490000  0.77280000  1.0
  H  H1345  1  0.06480000  0.39600000  0.77300000  1.0
  H  H1346  1  0.04370000  0.39940000  0.79590000  1.0
  H  H1347  1  0.27910000  0.58290000  0.87200000  1.0
  H  H1348  1  0.23380000  0.53660000  0.88720000  1.0
  H  H1349  1  0.25050000  0.52810000  0.86380000  1.0
  H  H1350  1  0.40460000  0.76820000  0.92420000  1.0
  H  H1351  1  0.34910000  0.70510000  0.90860000  1.0
  H  H1352  1  0.39880000  0.74210000  0.89490000  1.0
  H  H1353  1  0.31520000  0.78420000  0.83440000  1.0
  H  H1354  1  0.32530000  0.80430000  0.86880000  1.0
  H  H1355  1  0.37510000  0.84050000  0.85520000  1.0
  H  H1356  1  0.10380000  0.42050000  0.91050000  1.0
  H  H1357  1  0.10410000  0.44590000  0.88940000  1.0
  H  H1358  1  0.15800000  0.47400000  0.90300000  1.0
  H  H1359  1  0.06650000  0.32030000  0.78580000  1.0
  H  H1360  1  0.12470000  0.38240000  0.78970000  1.0
  H  H1361  1  0.07260000  0.35730000  0.77710000  1.0
  H  H1362  1  0.00110000  0.21250000  0.76760000  1.0
  H  H1363  1  0.94390000  0.15490000  0.74560000  1.0
  H  H1364  1  0.99100000  0.17160000  0.75340000  1.0
  H  H1365  1  0.89170000  0.06830000  0.85460000  1.0
  H  H1366  1  0.89190000  0.04120000  0.83150000  1.0
  H  H1367  1  0.84520000  0.02520000  0.82380000  1.0
  H  H1368  1  0.89830000  0.11070000  0.91840000  1.0
  H  H1369  1  0.86960000  0.10570000  0.93950000  1.0
  H  H1370  1  0.91620000  0.12320000  0.95380000  1.0
  H  H1371  1  0.05440000  0.34750000  0.95610000  1.0
  H  H1372  1  0.06430000  0.34270000  0.98760000  1.0
  H  H1373  1  0.01520000  0.32250000  0.97650000  1.0
  H  H1374  1  0.95790000  0.06850000  0.72620000  1.0
  H  H1375  1  0.97540000  0.08800000  0.76200000  1.0
  H  H1376  1  0.98270000  0.11960000  0.74250000  1.0
  H  H1377  1  0.75300000  0.95650000  0.74770000  1.0
  H  H1378  1  0.79820000  0.01840000  0.76200000  1.0
  H  H1379  1  0.79030000  0.98630000  0.78120000  1.0
  H  H1380  1  0.58550000  0.82500000  0.68470000  1.0
  H  H1381  1  0.64960000  0.87910000  0.69650000  1.0
  H  H1382  1  0.61600000  0.82550000  0.70390000  1.0
  H  H1383  1  0.61570000  0.77470000  0.57500000  1.0
  H  H1384  1  0.58900000  0.78310000  0.56850000  1.0
  H  H1385  1  0.55520000  0.72930000  0.57590000  1.0
  H  H1386  1  0.72340000  0.83550000  0.56310000  1.0
  H  H1387  1  0.75220000  0.83280000  0.55080000  1.0
  H  H1388  1  0.76170000  0.87230000  0.54240000  1.0
  H  H1389  1  0.96340000  0.02940000  0.62600000  1.0
  H  H1390  1  0.94500000  0.00940000  0.65520000  1.0
  H  H1391  1  0.95260000  0.04760000  0.64660000  1.0
  H  H1392  1  0.42170000  0.63120000  0.59150000  1.0
  H  H1393  1  0.47720000  0.66810000  0.58530000  1.0
  H  H1394  1  0.47020000  0.66200000  0.61820000  1.0
  H  H1395  1  0.55760000  0.85960000  0.62940000  1.0
  H  H1396  1  0.59380000  0.86940000  0.65240000  1.0
  H  H1397  1  0.59960000  0.87390000  0.61930000  1.0
  H  H1398  1  0.50920000  0.87480000  0.60700000  1.0
  H  H1399  1  0.52690000  0.90410000  0.58140000  1.0
  H  H1400  1  0.50030000  0.90080000  0.60350000  1.0
  H  H1401  1  0.32520000  0.75240000  0.50080000  1.0
  H  H1402  1  0.31220000  0.70780000  0.49480000  1.0
  H  H1403  1  0.28730000  0.70630000  0.51740000  1.0
  H  H1404  1  0.22190000  0.57430000  0.48680000  1.0
  H  H1405  1  0.22220000  0.55150000  0.45950000  1.0
  H  H1406  1  0.17270000  0.51100000  0.47370000  1.0
  H  H1407  1  0.31020000  0.54090000  0.55430000  1.0
  H  H1408  1  0.25330000  0.48160000  0.53330000  1.0
  H  H1409  1  0.30380000  0.52490000  0.52010000  1.0
  H  H1410  1  0.74850000  0.09390000  0.12900000  1.0
  H  H1411  1  0.72240000  0.10330000  0.12730000  1.0
  H  H1412  1  0.69370000  0.05330000  0.10400000  1.0
  H  H1413  1  0.83880000  0.21730000  0.03090000  1.0
  H  H1414  1  0.77590000  0.16650000  0.01500000  1.0
  H  H1415  1  0.80590000  0.21690000  0.03900000  1.0
  H  H1416  1  0.91220000  0.24920000  0.00900000  1.0
  H  H1417  1  0.95160000  0.27650000  0.98830000  1.0
  H  H1418  1  0.89130000  0.21380000  0.97710000  1.0
  H  H1419  1  0.98470000  0.18580000  0.03910000  1.0
  H  H1420  1  0.95810000  0.15880000  0.00370000  1.0
  H  H1421  1  0.01930000  0.22050000  0.01660000  1.0
  H  H1422  1  0.97370000  0.15870000  0.10800000  1.0
  H  H1423  1  0.98120000  0.15170000  0.13930000  1.0
  H  H1424  1  0.93290000  0.10030000  0.11100000  1.0
  H  H1425  1  0.81200000  0.09620000  0.16020000  1.0
  H  H1426  1  0.78710000  0.04380000  0.15790000  1.0
  H  H1427  1  0.83500000  0.09490000  0.18630000  1.0
  H  H1428  1  0.23190000  0.02630000  0.58200000  1.0
  H  H1429  1  0.20980000  0.98500000  0.59960000  1.0
  H  H1430  1  0.24330000  0.00240000  0.57690000  1.0
  H  H1431  1  0.43710000  0.18570000  0.68980000  1.0
  H  H1432  1  0.43040000  0.14780000  0.67500000  1.0
  H  H1433  1  0.39720000  0.13050000  0.69790000  1.0
  H  H1434  1  0.27640000  0.99640000  0.70760000  1.0
  H  H1435  1  0.26130000  0.01120000  0.68890000  1.0
  H  H1436  1  0.32290000  0.05550000  0.70360000  1.0
  H  H1437  1  0.29120000  0.96270000  0.58130000  1.0
  H  H1438  1  0.33800000  0.02570000  0.59010000  1.0
  H  H1439  1  0.27710000  0.98370000  0.57640000  1.0
  H  H1440  1  0.33810000  0.28620000  0.61490000  1.0
  H  H1441  1  0.27900000  0.24860000  0.61200000  1.0
  H  H1442  1  0.30130000  0.26390000  0.58320000  1.0
  H  H1443  1  0.20060000  0.05790000  0.56850000  1.0
  H  H1444  1  0.17980000  0.06000000  0.54120000  1.0
  H  H1445  1  0.15450000  0.04210000  0.56880000  1.0
  H  H1446  1  0.79240000  0.50060000  0.68580000  1.0
  H  H1447  1  0.79700000  0.51620000  0.65540000  1.0
  H  H1448  1  0.83130000  0.55980000  0.68690000  1.0
  H  H1449  1  0.99990000  0.61360000  0.66930000  1.0
  H  H1450  1  0.01620000  0.66050000  0.67110000  1.0
  H  H1451  1  0.98230000  0.61610000  0.64000000  1.0
  H  H1452  1  0.04370000  0.59550000  0.69900000  1.0
  H  H1453  1  0.06520000  0.58140000  0.70160000  1.0
  H  H1454  1  0.09650000  0.63300000  0.72470000  1.0
  H  H1455  1  0.94590000  0.47440000  0.79730000  1.0
  H  H1456  1  0.00880000  0.52510000  0.81330000  1.0
  H  H1457  1  0.97790000  0.47280000  0.79150000  1.0
  H  H1458  1  0.93140000  0.61890000  0.57890000  1.0
  H  H1459  1  0.88330000  0.56490000  0.58860000  1.0
  H  H1460  1  0.94330000  0.60460000  0.60190000  1.0
  H  H1461  1  0.94200000  0.70390000  0.69470000  1.0
  H  H1462  1  0.95800000  0.68700000  0.70800000  1.0
  H  H1463  1  0.89620000  0.64310000  0.69530000  1.0
  H  H1464  1  0.06490000  0.17440000  0.35790000  1.0
  H  H1465  1  0.08060000  0.16330000  0.38090000  1.0
  H  H1466  1  0.01920000  0.12070000  0.36830000  1.0
  H  H1467  1  0.07800000  0.25820000  0.47840000  1.0
  H  H1468  1  0.03150000  0.19680000  0.47750000  1.0
  H  H1469  1  0.09300000  0.23980000  0.49020000  1.0
  H  H1470  1  0.12220000  0.35330000  0.49070000  1.0
  H  H1471  1  0.17820000  0.41040000  0.51380000  1.0
  H  H1472  1  0.13030000  0.39250000  0.50520000  1.0
  H  H1473  1  0.23710000  0.50350000  0.40500000  1.0
  H  H1474  1  0.23240000  0.52730000  0.42650000  1.0
  H  H1475  1  0.28180000  0.54750000  0.43630000  1.0
  H  H1476  1  0.97550000  0.15520000  0.19510000  1.0
  H  H1477  1  0.96650000  0.13460000  0.22390000  1.0
  H  H1478  1  0.98200000  0.12700000  0.19860000  1.0
  H  H1479  1  0.73950000  0.93070000  0.13360000  1.0
  H  H1480  1  0.75680000  0.97840000  0.13800000  1.0
  H  H1481  1  0.77380000  0.97150000  0.11350000  1.0
  H  H1482  1  0.33160000  0.82070000  0.94690000  1.0
  H  H1483  1  0.31410000  0.79710000  0.91180000  1.0
  H  H1484  1  0.30660000  0.76860000  0.93460000  1.0
  H  H1485  1  0.53640000  0.92480000  0.93960000  1.0
  H  H1486  1  0.49010000  0.86250000  0.92560000  1.0
  H  H1487  1  0.50410000  0.89700000  0.90510000  1.0
  H  H1488  1  0.63960000  0.03330000  0.98530000  1.0
  H  H1489  1  0.70340000  0.08960000  0.99840000  1.0
  H  H1490  1  0.67140000  0.03830000  0.00850000  1.0
  H  H1491  1  0.65150000  0.11470000  0.10480000  1.0
  H  H1492  1  0.68580000  0.11640000  0.11740000  1.0
  H  H1493  1  0.71390000  0.16560000  0.10650000  1.0
  H  H1494  1  0.54790000  0.93930000  0.51140000  1.0
  H  H1495  1  0.54210000  0.92400000  0.54210000  1.0
  H  H1496  1  0.50530000  0.87890000  0.51080000  1.0
  H  H1497  1  0.35540000  0.85310000  0.52610000  1.0
  H  H1498  1  0.33050000  0.80070000  0.52380000  1.0
  H  H1499  1  0.36650000  0.84510000  0.55520000  1.0
  H  H1500  1  0.87600000  0.37920000  0.91480000  1.0
  H  H1501  1  0.86070000  0.34060000  0.88910000  1.0
  H  H1502  1  0.82360000  0.31620000  0.91100000  1.0
  H  H1503  1  0.92020000  0.29640000  0.95880000  1.0
  H  H1504  1  0.98150000  0.35830000  0.97140000  1.0
  H  H1505  1  0.94100000  0.33010000  0.99150000  1.0
  H  H1506  1  0.09000000  0.46370000  0.03510000  1.0
  H  H1507  1  0.14820000  0.50150000  0.03450000  1.0
  H  H1508  1  0.13570000  0.49930000  0.06580000  1.0
  H  H1509  1  0.22210000  0.68950000  0.05100000  1.0
  H  H1510  1  0.25610000  0.70220000  0.07910000  1.0
  H  H1511  1  0.26480000  0.70160000  0.04680000  1.0
  H  H1512  1  0.17620000  0.72450000  0.97350000  1.0
  H  H1513  1  0.16690000  0.70630000  0.00340000  1.0
  H  H1514  1  0.18820000  0.70210000  0.98150000  1.0
  H  H1515  1  0.94530000  0.48710000  0.91480000  1.0
  H  H1516  1  0.95570000  0.52900000  0.91190000  1.0
  H  H1517  1  0.97750000  0.52300000  0.89230000  1.0
  H  H1518  1  0.40480000  0.40350000  0.70130000  1.0
  H  H1519  1  0.40740000  0.38610000  0.72810000  1.0
  H  H1520  1  0.36560000  0.34340000  0.69620000  1.0
  H  H1521  1  0.21640000  0.29350000  0.75070000  1.0
  H  H1522  1  0.19720000  0.24470000  0.74090000  1.0
  H  H1523  1  0.23880000  0.28790000  0.77290000  1.0
  H  H1524  1  0.16210000  0.29790000  0.72720000  1.0
  H  H1525  1  0.12300000  0.29180000  0.72700000  1.0
  H  H1526  1  0.10350000  0.24780000  0.70410000  1.0
  H  H1527  1  0.21090000  0.40710000  0.62800000  1.0
  H  H1528  1  0.14940000  0.34660000  0.61280000  1.0
  H  H1529  1  0.16430000  0.38670000  0.63620000  1.0
  H  H1530  1  0.34400000  0.48040000  0.57580000  1.0
  H  H1531  1  0.29650000  0.44050000  0.59140000  1.0
  H  H1532  1  0.34720000  0.50390000  0.60510000  1.0
  H  H1533  1  0.44980000  0.48080000  0.66560000  1.0
  H  H1534  1  0.43550000  0.45650000  0.63120000  1.0
  H  H1535  1  0.48530000  0.51990000  0.64480000  1.0
  H  H1536  1  0.01000000  0.19330000  0.58950000  1.0
  H  H1537  1  0.05650000  0.21470000  0.61060000  1.0
  H  H1538  1  0.07100000  0.25500000  0.59700000  1.0
  H  H1539  1  0.03450000  0.28070000  0.71420000  1.0
  H  H1540  1  0.09270000  0.33500000  0.71030000  1.0
  H  H1541  1  0.08020000  0.29550000  0.72290000  1.0
  H  H1542  1  0.94490000  0.23350000  0.73240000  1.0
  H  H1543  1  0.90930000  0.19830000  0.75440000  1.0
  H  H1544  1  0.91820000  0.23760000  0.74660000  1.0
  H  H1545  1  0.71370000  0.03710000  0.64540000  1.0
  H  H1546  1  0.70970000  0.06040000  0.66850000  1.0
  H  H1547  1  0.70140000  0.02140000  0.67620000  1.0
  H  H1548  1  0.69230000  0.97990000  0.58160000  1.0
  H  H1549  1  0.66620000  0.93010000  0.56050000  1.0
  H  H1550  1  0.66940000  0.96240000  0.54620000  1.0
  H  H1551  1  0.89140000  0.09830000  0.54390000  1.0
  H  H1552  1  0.85510000  0.07670000  0.51240000  1.0
  H  H1553  1  0.84600000  0.03870000  0.52350000  1.0
  H  H1554  1  0.84230000  0.23170000  0.77380000  1.0
  H  H1555  1  0.82600000  0.21340000  0.73800000  1.0
  H  H1556  1  0.87710000  0.24020000  0.75750000  1.0
  H  H1557  1  0.70880000  0.00530000  0.75230000  1.0
  H  H1558  1  0.75640000  0.03620000  0.73800000  1.0
  H  H1559  1  0.70510000  0.00910000  0.71880000  1.0
  H  H1560  1  0.64030000  0.90080000  0.81530000  1.0
  H  H1561  1  0.68260000  0.95310000  0.80350000  1.0
  H  H1562  1  0.62160000  0.91210000  0.79610000  1.0
  H  H1563  1  0.69970000  0.04070000  0.92500000  1.0
  H  H1564  1  0.71460000  0.02050000  0.93150000  1.0
  H  H1565  1  0.65340000  0.97930000  0.92410000  1.0
  H  H1566  1  0.77240000  0.16030000  0.93690000  1.0
  H  H1567  1  0.78200000  0.20140000  0.94920000  1.0
  H  H1568  1  0.82990000  0.21930000  0.95760000  1.0
  H  H1569  1  0.90340000  0.33740000  0.87400000  1.0
  H  H1570  1  0.85420000  0.28980000  0.84480000  1.0
  H  H1571  1  0.90100000  0.30600000  0.85340000  1.0
  H  H1572  1  0.53970000  0.83020000  0.90850000  1.0
  H  H1573  1  0.58280000  0.89190000  0.91470000  1.0
  H  H1574  1  0.54380000  0.85200000  0.88180000  1.0
  H  H1575  1  0.73020000  0.92820000  0.87060000  1.0
  H  H1576  1  0.71700000  0.94140000  0.84760000  1.0
  H  H1577  1  0.75460000  0.98030000  0.88070000  1.0
  H  H1578  1  0.76780000  0.90220000  0.89300000  1.0
  H  H1579  1  0.82270000  0.94550000  0.91860000  1.0
  H  H1580  1  0.79730000  0.89680000  0.89650000  1.0
  H  H1581  1  0.75160000  0.82440000  0.99920000  1.0
  H  H1582  1  0.71300000  0.81740000  0.00520000  1.0
  H  H1583  1  0.68890000  0.76990000  0.98260000  1.0
  H  H1584  1  0.58750000  0.73510000  0.01320000  1.0
  H  H1585  1  0.59200000  0.76270000  0.04050000  1.0
  H  H1586  1  0.53730000  0.69900000  0.02630000  1.0
  H  H1587  1  0.48660000  0.75590000  0.94570000  1.0
  H  H1588  1  0.44830000  0.72000000  0.96670000  1.0
  H  H1589  1  0.50480000  0.78370000  0.97990000  1.0
  H  H1590  1  0.46490000  0.61950000  0.37100000  1.0
  H  H1591  1  0.47600000  0.59510000  0.37270000  1.0
  H  H1592  1  0.44930000  0.58970000  0.39600000  1.0
  H  H1593  1  0.68640000  0.80790000  0.46910000  1.0
  H  H1594  1  0.65150000  0.76090000  0.48500000  1.0
  H  H1595  1  0.67790000  0.76690000  0.46100000  1.0
  H  H1596  1  0.74020000  0.90320000  0.49100000  1.0
  H  H1597  1  0.78820000  0.96330000  0.51170000  1.0
  H  H1598  1  0.73670000  0.91420000  0.52290000  1.0
  H  H1599  1  0.64670000  0.94560000  0.46090000  1.0
  H  H1600  1  0.65510000  0.95440000  0.49630000  1.0
  H  H1601  1  0.70390000  0.00270000  0.48340000  1.0
  H  H1602  1  0.55070000  0.86570000  0.39200000  1.0
  H  H1603  1  0.51240000  0.84190000  0.36070000  1.0
  H  H1604  1  0.48930000  0.82190000  0.38900000  1.0
  H  H1605  1  0.43600000  0.65180000  0.33980000  1.0
  H  H1606  1  0.38590000  0.62920000  0.34210000  1.0
  H  H1607  1  0.40860000  0.64870000  0.31370000  1.0
  H  H1608  1  0.94430000  0.64990000  0.91800000  1.0
  H  H1609  1  0.88540000  0.61020000  0.90040000  1.0
  H  H1610  1  0.92550000  0.66640000  0.92310000  1.0
  H  H1611  1  0.99590000  0.74730000  0.81020000  1.0
  H  H1612  1  0.97280000  0.75540000  0.82500000  1.0
  H  H1613  1  0.93260000  0.69930000  0.80210000  1.0
  H  H1614  1  0.78880000  0.56880000  0.79240000  1.0
  H  H1615  1  0.82230000  0.57240000  0.81110000  1.0
  H  H1616  1  0.85190000  0.61930000  0.79640000  1.0
  H  H1617  1  0.88140000  0.70990000  0.91870000  1.0
  H  H1618  1  0.93560000  0.74790000  0.90990000  1.0
  H  H1619  1  0.90730000  0.70070000  0.92360000  1.0
  H  H1620  1  0.17130000  0.72320000  0.88510000  1.0
  H  H1621  1  0.13660000  0.66700000  0.88800000  1.0
  H  H1622  1  0.18070000  0.71810000  0.91680000  1.0
  H  H1623  1  0.98940000  0.63210000  0.93150000  1.0
  H  H1624  1  0.01880000  0.63860000  0.95880000  1.0
  H  H1625  1  0.97330000  0.58570000  0.93120000  1.0
  H  H1626  1  0.31480000  0.10660000  0.81420000  1.0
  H  H1627  1  0.36080000  0.14160000  0.84460000  1.0
  H  H1628  1  0.37290000  0.14440000  0.81310000  1.0
  H  H1629  1  0.44430000  0.33060000  0.83070000  1.0
  H  H1630  1  0.48940000  0.34510000  0.82890000  1.0
  H  H1631  1  0.47610000  0.34230000  0.86000000  1.0
  H  H1632  1  0.39650000  0.34470000  0.80100000  1.0
  H  H1633  1  0.37980000  0.36360000  0.79840000  1.0
  H  H1634  1  0.40830000  0.37180000  0.77530000  1.0
  H  H1635  1  0.17710000  0.14860000  0.70270000  1.0
  H  H1636  1  0.21180000  0.19550000  0.68670000  1.0
  H  H1637  1  0.18130000  0.18640000  0.70850000  1.0
  H  H1638  1  0.54000000  0.35250000  0.92110000  1.0
  H  H1639  1  0.47630000  0.29470000  0.91140000  1.0
  H  H1640  1  0.50270000  0.34140000  0.89810000  1.0
  H  H1641  1  0.50920000  0.24730000  0.80530000  1.0
  H  H1642  1  0.47900000  0.25000000  0.79200000  1.0
  H  H1643  1  0.44780000  0.20090000  0.80470000  1.0
  H  H1644  1  0.31650000  0.70700000  0.14210000  1.0
  H  H1645  1  0.28240000  0.69970000  0.11910000  1.0
  H  H1646  1  0.25240000  0.65090000  0.13170000  1.0
  H  H1647  1  0.27980000  0.59960000  0.02160000  1.0
  H  H1648  1  0.21930000  0.55400000  0.02250000  1.0
  H  H1649  1  0.24960000  0.60280000  0.00980000  1.0
  H  H1650  1  0.36260000  0.63150000  0.00930000  1.0
  H  H1651  1  0.39660000  0.66440000  0.98620000  1.0
  H  H1652  1  0.38730000  0.62510000  0.99480000  1.0
  H  H1653  1  0.59850000  0.83210000  0.09500000  1.0
  H  H1654  1  0.60080000  0.80590000  0.07350000  1.0
  H  H1655  1  0.61120000  0.84550000  0.06370000  1.0
  H  H1656  1  0.46010000  0.78040000  0.30490000  1.0
  H  H1657  1  0.41070000  0.74260000  0.27610000  1.0
  H  H1658  1  0.42840000  0.78340000  0.30140000  1.0
  H  H1659  1  0.29710000  0.60590000  0.36640000  1.0
  H  H1660  1  0.34040000  0.61880000  0.36200000  1.0
  H  H1661  1  0.35800000  0.66030000  0.38650000  1.0
  H  H1662  1  0.37380000  0.38470000  0.55310000  1.0
  H  H1663  1  0.38530000  0.40230000  0.58820000  1.0
  H  H1664  1  0.33400000  0.37200000  0.56540000  1.0
  H  H1665  1  0.48520000  0.59680000  0.56040000  1.0
  H  H1666  1  0.43690000  0.56450000  0.57440000  1.0
  H  H1667  1  0.49190000  0.59900000  0.59490000  1.0
  H  H1668  1  0.54800000  0.65430000  0.51470000  1.0
  H  H1669  1  0.59120000  0.70500000  0.50160000  1.0
  H  H1670  1  0.52980000  0.66290000  0.49150000  1.0
  H  H1671  1  0.50990000  0.54670000  0.39520000  1.0
  H  H1672  1  0.49900000  0.56840000  0.38260000  1.0
  H  H1673  1  0.55910000  0.60740000  0.39350000  1.0
  H  H1674  1  0.92790000  0.03650000  0.98860000  1.0
  H  H1675  1  0.88190000  0.00000000  0.95790000  1.0
  H  H1676  1  0.86810000  0.99450000  0.98920000  1.0
  H  H1677  1  0.82700000  0.82930000  0.97390000  1.0
  H  H1678  1  0.77690000  0.80670000  0.97620000  1.0
  H  H1679  1  0.78990000  0.81130000  0.94480000  1.0
  C  C1680  1  0.15310000  0.56270000  0.51360000  1.0
  C  C1681  1  0.14580000  0.57690000  0.53950000  1.0
  C  C1682  1  0.17880000  0.61257000  0.56817000  1.0
  C  C1683  1  0.15219000  0.61010000  0.58149000  1.0
  C  C1684  1  0.16830000  0.63940000  0.61270000  1.0
  C  C1685  1  0.00210000  0.54710000  0.63060000  1.0
  C  C1686  1  0.95660000  0.50110000  0.60290000  1.0
  C  C1687  1  0.89950000  0.45660000  0.59950000  1.0
  C  C1688  1  0.87500000  0.42610000  0.56970000  1.0
  C  C1689  1  0.81500000  0.37260000  0.55340000  1.0
  C  C1690  1  0.80120000  0.28370000  0.46590000  1.0
  C  C1691  1  0.85760000  0.32320000  0.46500000  1.0
  C  C1692  1  0.87810000  0.31940000  0.44890000  1.0
  C  C1693  1  0.93500000  0.37110000  0.45750000  1.0
  C  C1694  1  0.97770000  0.38930000  0.44840000  1.0
  C  C1695  1  0.12580000  0.33640000  0.00940000  1.0
  C  C1696  1  0.14200000  0.36200000  0.98400000  1.0
  C  C1697  1  0.18420000  0.41860000  0.98720000  1.0
  C  C1698  1  0.18270000  0.42060000  0.95750000  1.0
  C  C1699  1  0.21740000  0.46920000  0.94480000  1.0
  C  C1700  1  0.21400000  0.42850000  0.84830000  1.0
  C  C1701  1  0.18240000  0.37430000  0.83890000  1.0
  C  C1702  1  0.18390000  0.35290000  0.81720000  1.0
  C  C1703  1  0.14120000  0.29850000  0.81810000  1.0
  C  C1704  1  0.12350000  0.25460000  0.79870000  1.0
  C  C1705  1  0.02500000  0.11990000  0.86030000  1.0
  C  C1706  1  0.02420000  0.13900000  0.88880000  1.0
  C  C1707  1  0.01800000  0.12710000  0.91570000  1.0
  C  C1708  1  0.02100000  0.15720000  0.93180000  1.0
  C  C1709  1  0.01550000  0.16080000  0.96450000  1.0
  C  C1710  1  0.27620000  0.38110000  0.82070000  1.0
  C  C1711  1  0.26320000  0.39530000  0.80130000  1.0
  C  C1712  1  0.22350000  0.38330000  0.79940000  1.0
  C  C1713  1  0.23210000  0.40900000  0.77930000  1.0
  C  C1714  1  0.20250000  0.41150000  0.76780000  1.0
  C  C1715  1  0.28650000  0.52530000  0.70000000  1.0
  C  C1716  1  0.33170000  0.54390000  0.69540000  1.0
  C  C1717  1  0.36920000  0.58100000  0.67980000  1.0
  C  C1718  1  0.40190000  0.58350000  0.68260000  1.0
  C  C1719  1  0.45000000  0.61660000  0.67100000  1.0
  C  C1720  1  0.53440000  0.59640000  0.72220000  1.0
  C  C1721  1  0.49650000  0.55450000  0.73940000  1.0
  C  C1722  1  0.49820000  0.53180000  0.75700000  1.0
  C  C1723  1  0.45367000  0.49860000  0.76887000  1.0
  C  C1724  1  0.43310000  0.46300000  0.78870000  1.0
  C  C1725  1  0.28340000  0.54000000  0.62420000  1.0
  C  C1726  1  0.33820000  0.59560000  0.64360000  1.0
  C  C1727  1  0.37530000  0.61280000  0.66610000  1.0
  C  C1728  1  0.41910000  0.66990000  0.67640000  1.0
  C  C1729  1  0.47200000  0.71090000  0.70130000  1.0
  C  C1730  1  0.57120000  0.88230000  0.72230000  1.0
  C  C1731  1  0.53940000  0.87960000  0.70440000  1.0
  C  C1732  1  0.54350000  0.91300000  0.70830000  1.0
  C  C1733  1  0.50300000  0.88890000  0.68390000  1.0
  C  C1734  1  0.48940000  0.90920000  0.67720000  1.0
  C  C1735  1  0.30200000  0.74400000  0.60040000  1.0
  C  C1736  1  0.28220000  0.69720000  0.59700000  1.0
  C  C1737  1  0.22980000  0.63990000  0.58230000  1.0
  C  C1738  1  0.23760000  0.61734000  0.58654000  1.0
  C  C1739  1  0.19750000  0.55880000  0.57710000  1.0
  C  C1740  1  0.63910000  0.03920000  0.70330000  1.0
  C  C1741  1  0.62540000  0.01830000  0.73150000  1.0
  C  C1742  1  0.58280000  0.96280000  0.73400000  1.0
  C  C1743  1  0.58930000  0.96820000  0.76410000  1.0
  C  C1744  1  0.55700000  0.92560000  0.78040000  1.0
  C  C1745  1  0.59250000  0.99980000  0.88170000  1.0
  C  C1746  1  0.62640000  0.05500000  0.88420000  1.0
  C  C1747  1  0.63130000  0.08440000  0.90430000  1.0
  C  C1748  1  0.66770000  0.13170000  0.89720000  1.0
  C  C1749  1  0.69110000  0.18130000  0.91100000  1.0
  C  C1750  1  0.76650000  0.28840000  0.83450000  1.0
  C  C1751  1  0.76068000  0.26098000  0.80926000  1.0
  C  C1752  1  0.76070000  0.26400000  0.77990000  1.0
  C  C1753  1  0.75390000  0.22860000  0.76590000  1.0
  C  C1754  1  0.74810000  0.21410000  0.73380000  1.0
  C  C1755  1  0.88720000  0.77170000  0.86250000  1.0
  C  C1756  1  0.83340000  0.73930000  0.86490000  1.0
  C  C1757  1  0.82170000  0.75050000  0.88500000  1.0
  C  C1758  1  0.76610000  0.70750000  0.87700000  1.0
  C  C1759  1  0.72930000  0.69570000  0.89040000  1.0
  C  C1760  1  0.57240000  0.57780000  0.82160000  1.0
  C  C1761  1  0.56870000  0.55960000  0.79110000  1.0
  C  C1762  1  0.53840000  0.54240000  0.76260000  1.0
  C  C1763  1  0.55351000  0.53420000  0.74231000  1.0
  C  C1764  1  0.53620000  0.51650000  0.70830000  1.0
  C  C1765  1  0.66640000  0.54510000  0.68050000  1.0
  C  C1766  1  0.71070000  0.58070000  0.70940000  1.0
  C  C1767  1  0.76500000  0.61550000  0.71310000  1.0
  C  C1768  1  0.78830000  0.63950000  0.74480000  1.0
  C  C1769  1  0.84470000  0.68000000  0.76310000  1.0
  C  C1770  1  0.85220000  0.26060000  0.27520000  1.0
  C  C1771  1  0.82539000  0.20790000  0.26989000  1.0
  C  C1772  1  0.81860000  0.18100000  0.24560000  1.0
  C  C1773  1  0.79050000  0.13480000  0.25350000  1.0
  C  C1774  1  0.77020000  0.08820000  0.23660000  1.0
  C  C1775  1  0.90690000  0.21300000  0.23030000  1.0
  C  C1776  1  0.87884000  0.21207000  0.21271000  1.0
  C  C1777  1  0.83980000  0.19840000  0.21860000  1.0
  C  C1778  1  0.82720000  0.20620000  0.19540000  1.0
  C  C1779  1  0.78860000  0.19930000  0.18970000  1.0
  C  C1780  1  0.80050000  0.19870000  0.45440000  1.0
  C  C1781  1  0.81580000  0.22110000  0.42730000  1.0
  C  C1782  1  0.84940000  0.27302000  0.42502000  1.0
  C  C1783  1  0.84836000  0.26943000  0.39459000  1.0
  C  C1784  1  0.87560000  0.31270000  0.37850000  1.0
  C  C1785  1  0.35920000  0.68330000  0.21270000  1.0
  C  C1786  1  0.31300000  0.63750000  0.18470000  1.0
  C  C1787  1  0.25750000  0.59440000  0.18130000  1.0
  C  C1788  1  0.23110000  0.56210000  0.15080000  1.0
  C  C1789  1  0.17340000  0.51160000  0.13420000  1.0
  C  C1790  1  0.15180000  0.43890000  0.03490000  1.0
  C  C1791  1  0.20690000  0.47320000  0.03530000  1.0
  C  C1792  1  0.22030000  0.46405000  0.01495000  1.0
  C  C1793  1  0.27640000  0.50760000  0.02620000  1.0
  C  C1794  1  0.31490000  0.51990000  0.01560000  1.0
  C  C1795  1  0.17430000  0.57900000  0.18150000  1.0
  C  C1796  1  0.19150000  0.57100000  0.20250000  1.0
  C  C1797  1  0.22910000  0.58040000  0.20370000  1.0
  C  C1798  1  0.22960000  0.56750000  0.22990000  1.0
  C  C1799  1  0.26060000  0.56790000  0.24310000  1.0
  C  C1800  1  0.81830000  0.44370000  0.60260000  1.0
  C  C1801  1  0.83790000  0.43660000  0.62470000  1.0
  C  C1802  1  0.87440000  0.44410000  0.62410000  1.0
  C  C1803  1  0.87610000  0.43140000  0.64970000  1.0
  C  C1804  1  0.90760000  0.43230000  0.66150000  1.0
  C  C1805  1  0.84980000  0.35210000  0.74290000  1.0
  C  C1806  1  0.80390000  0.33200000  0.74810000  1.0
  C  C1807  1  0.76530000  0.29350000  0.76340000  1.0
  C  C1808  1  0.73080000  0.28940000  0.76060000  1.0
  C  C1809  1  0.68230000  0.25650000  0.77300000  1.0
  C  C1810  1  0.74050000  0.53810000  0.66540000  1.0
  C  C1811  1  0.78281000  0.59634000  0.67015000  1.0
  C  C1812  1  0.79340000  0.62940000  0.69100000  1.0
  C  C1813  1  0.83730000  0.68100000  0.68510000  1.0
  C  C1814  1  0.86560000  0.73230000  0.70030000  1.0
  C  C1815  1  0.10220000  0.17060000  0.97360000  1.0
  C  C1816  1  0.04710000  0.11330000  0.95260000  1.0
  C  C1817  1  0.01220000  0.09520000  0.92800000  1.0
  C  C1818  1  0.97250000  0.03960000  0.91750000  1.0
  C  C1819  1  0.92370000  0.99860000  0.89030000  1.0
  C  C1820  1  0.83290000  0.83000000  0.88690000  1.0
  C  C1821  1  0.86480000  0.83670000  0.90790000  1.0
  C  C1822  1  0.86150000  0.80380000  0.90750000  1.0
  C  C1823  1  0.90440000  0.83320000  0.93280000  1.0
  C  C1824  1  0.92210000  0.81920000  0.94570000  1.0
  C  C1825  1  0.49890000  0.97740000  0.88870000  1.0
  C  C1826  1  0.54150000  0.01950000  0.91800000  1.0
  C  C1827  1  0.59920000  0.06490000  0.92590000  1.0
  C  C1828  1  0.61390000  0.08710000  0.95620000  1.0
  C  C1829  1  0.67205000  0.13840000  0.97765000  1.0
  C  C1830  1  0.54910000  0.63950000  0.98640000  1.0
  C  C1831  1  0.53740000  0.60630000  0.96050000  1.0
  C  C1832  1  0.54440000  0.61063000  0.93183000  1.0
  C  C1833  1  0.52861000  0.57070000  0.91851000  1.0
  C  C1834  1  0.52670000  0.55560000  0.88730000  1.0
  C  C1835  1  0.41650000  0.37150000  0.86940000  1.0
  C  C1836  1  0.39820000  0.35370000  0.89710000  1.0
  C  C1837  1  0.35710000  0.30000000  0.90050000  1.0
  C  C1838  1  0.35640000  0.30530000  0.93030000  1.0
  C  C1839  1  0.31920000  0.26160000  0.94660000  1.0
  C  C1840  1  0.31780000  0.33530000  0.03410000  1.0
  C  C1841  1  0.35820000  0.39260000  0.03500000  1.0
  C  C1842  1  0.37050000  0.42920000  0.05110000  1.0
  C  C1843  1  0.41360000  0.47750000  0.04250000  1.0
  C  C1844  1  0.44090000  0.52930000  0.05160000  1.0
  C  C1845  1  0.82700000  0.11640000  0.49060000  1.0
  C  C1846  1  0.87800000  0.15800000  0.51600000  1.0
  C  C1847  1  0.93140000  0.19700000  0.51280000  1.0
  C  C1848  1  0.96310000  0.22520000  0.54250000  1.0
  C  C1849  1  0.02440000  0.27260000  0.55520000  1.0
  C  C1850  1  0.08020000  0.36570000  0.65170000  1.0
  C  C1851  1  0.03540000  0.34350000  0.66110000  1.0
  C  C1852  1  0.03570000  0.36670000  0.68280000  1.0
  C  C1853  1  0.98040000  0.32310000  0.68190000  1.0
  C  C1854  1  0.95590000  0.32480000  0.70130000  1.0
  C  C1855  1  0.75960000  0.16470000  0.63970000  1.0
  C  C1856  1  0.75020000  0.13540000  0.61120000  1.0
  C  C1857  1  0.71140000  0.10230000  0.58430000  1.0
  C  C1858  1  0.72540000  0.08920000  0.56820000  1.0
  C  C1859  1  0.69630000  0.05100000  0.53550000  1.0
  C  C1860  1  0.06040000  0.45550000  0.67930000  1.0
  C  C1861  1  0.09400000  0.46190000  0.69870000  1.0
  C  C1862  1  0.08390000  0.42410000  0.70060000  1.0
  C  C1863  1  0.12970000  0.45280000  0.72070000  1.0
  C  C1864  1  0.14370000  0.43470000  0.73220000  1.0
  C  C1865  1  0.32530000  0.58650000  0.80000000  1.0
  C  C1866  1  0.34850000  0.63630000  0.80460000  1.0
  C  C1867  1  0.40120000  0.68940000  0.82020000  1.0
  C  C1868  1  0.40090000  0.71930000  0.81740000  1.0
  C  C1869  1  0.44560000  0.77900000  0.82900000  1.0
  C  C1870  1  0.37420000  0.81220000  0.77780000  1.0
  C  C1871  1  0.31510000  0.75710000  0.76060000  1.0
  C  C1872  1  0.27480000  0.74120000  0.74300000  1.0
  C  C1873  1  0.22973000  0.68480000  0.73113000  1.0
  C  C1874  1  0.17430000  0.64440000  0.71130000  1.0
  C  C1875  1  0.41580000  0.65920000  0.87580000  1.0
  C  C1876  1  0.45200000  0.69460000  0.85640000  1.0
  C  C1877  1  0.44670000  0.70920000  0.83390000  1.0
  C  C1878  1  0.49350000  0.74270000  0.82360000  1.0
  C  C1879  1  0.50960000  0.77070000  0.79870000  1.0
  C  C1880  1  0.66000000  0.84890000  0.77770000  1.0
  C  C1881  1  0.67520000  0.83500000  0.79560000  1.0
  C  C1882  1  0.70470000  0.83520000  0.79170000  1.0
  C  C1883  1  0.70500000  0.81910000  0.81610000  1.0
  C  C1884  1  0.73200000  0.81220000  0.82280000  1.0
  C  C1885  1  0.64360000  0.70160000  0.89960000  1.0
  C  C1886  1  0.60020000  0.68520000  0.90300000  1.0
  C  C1887  1  0.55760000  0.64750000  0.91770000  1.0
  C  C1888  1  0.53080000  0.65106000  0.91346000  1.0
  C  C1889  1  0.48170000  0.62040000  0.92290000  1.0
  C  C1890  1  0.83590000  0.93580000  0.79670000  1.0
  C  C1891  1  0.78680000  0.89390000  0.76850000  1.0
  C  C1892  1  0.72880000  0.84880000  0.76600000  1.0
  C  C1893  1  0.70410000  0.82520000  0.73590000  1.0
  C  C1894  1  0.64520000  0.77660000  0.71960000  1.0
  C  C1895  1  0.61810000  0.71080000  0.61830000  1.0
  C  C1896  1  0.67080000  0.74220000  0.61580000  1.0
  C  C1897  1  0.68010000  0.72700000  0.59570000  1.0
  C  C1898  1  0.73450000  0.77050000  0.60280000  1.0
  C  C1899  1  0.77030000  0.78010000  0.58900000  1.0
  C  C1900  1  0.95390000  0.93200000  0.66550000  1.0
  C  C1901  1  0.95172000  0.95142000  0.69074000  1.0
  C  C1902  1  0.98410000  0.98080000  0.72010000  1.0
  C  C1903  1  0.96270000  0.98800000  0.73410000  1.0
  C  C1904  1  0.98030000  0.01430000  0.76620000  1.0
  C  C1905  1  0.40920000  0.02470000  0.63750000  1.0
  C  C1906  1  0.37440000  0.96850000  0.63510000  1.0
  C  C1907  1  0.36550000  0.93670000  0.61500000  1.0
  C  C1908  1  0.33050000  0.88910000  0.62300000  1.0
  C  C1909  1  0.30530000  0.83890000  0.60960000  1.0
  C  C1910  1  0.25620000  0.75080000  0.67840000  1.0
  C  C1911  1  0.26850000  0.77760000  0.70890000  1.0
  C  C1912  1  0.27980000  0.77580000  0.73740000  1.0
  C  C1913  1  0.29189000  0.81120000  0.75769000  1.0
  C  C1914  1  0.30820000  0.82790000  0.79170000  1.0
  C  C1915  1  0.36460000  0.98590000  0.81950000  1.0
  C  C1916  1  0.37130000  0.00130000  0.79060000  1.0
  C  C1917  1  0.40240000  0.05190000  0.78690000  1.0
  C  C1918  1  0.39470000  0.04350000  0.75520000  1.0
  C  C1919  1  0.41690000  0.08160000  0.73690000  1.0
  C  C1920  1  0.48540000  0.57700000  0.22480000  1.0
  C  C1921  1  0.43801000  0.55550000  0.23011000  1.0
  C  C1922  1  0.43540000  0.57300000  0.25440000  1.0
  C  C1923  1  0.38130000  0.53700000  0.24650000  1.0
  C  C1924  1  0.35160000  0.53360000  0.26340000  1.0
  C  C1925  1  0.48270000  0.67660000  0.26970000  1.0
  C  C1926  1  0.49936000  0.66613000  0.28729000  1.0
  C  C1927  1  0.47980000  0.62120000  0.28140000  1.0
  C  C1928  1  0.51080000  0.63180000  0.30460000  1.0
  C  C1929  1  0.50960000  0.59890000  0.31030000  1.0
  C  C1930  1  0.24430000  0.34610000  0.04560000  1.0
  C  C1931  1  0.29380000  0.38850000  0.07270000  1.0
  C  C1932  1  0.34800000  0.42438000  0.07498000  1.0
  C  C1933  1  0.37484000  0.45377000  0.10541000  1.0
  C  C1934  1  0.43420000  0.49710000  0.12150000  1.0
  C  C1935  1  0.97060000  0.14650000  0.28730000  1.0
  C  C1936  1  0.95280000  0.12830000  0.31530000  1.0
  C  C1937  1  0.91310000  0.07620000  0.31870000  1.0
  C  C1938  1  0.91130000  0.08030000  0.34920000  1.0
  C  C1939  1  0.87740000  0.03920000  0.36580000  1.0
  C  C1940  1  0.90400000  0.11690000  0.46510000  1.0
  C  C1941  1  0.93790000  0.17160000  0.46470000  1.0
  C  C1942  1  0.94910000  0.20535000  0.48505000  1.0
  C  C1943  1  0.98140000  0.25020000  0.47380000  1.0
  C  C1944  1  0.00430000  0.29930000  0.48440000  1.0
  C  C1945  1  0.89750000  0.99280000  0.31850000  1.0
  C  C1946  1  0.86850000  0.98900000  0.29750000  1.0
  C  C1947  1  0.87670000  0.02540000  0.29630000  1.0
  C  C1948  1  0.83760000  0.99970000  0.27010000  1.0
  C  C1949  1  0.82480000  0.01750000  0.25690000  1.0
  C  C1950  1  0.34110000  0.21570000  0.89740000  1.0
  C  C1951  1  0.31190000  0.21320000  0.87530000  1.0
  C  C1952  1  0.32000000  0.25030000  0.87590000  1.0
  C  C1953  1  0.28170000  0.22640000  0.85030000  1.0
  C  C1954  1  0.27080000  0.24610000  0.83850000  1.0
  C  C1955  1  0.10920000  0.10690000  0.75710000  1.0
  C  C1956  1  0.08390000  0.05580000  0.75190000  1.0
  C  C1957  1  0.03010000  0.00190000  0.73660000  1.0
  C  C1958  1  0.02880000  0.97020000  0.73940000  1.0
  C  C1959  1  0.98350000  0.90930000  0.72700000  1.0
  C  C1960  1  0.37270000  0.07510000  0.83460000  1.0
  C  C1961  1  0.42619000  0.11266000  0.82985000  1.0
  C  C1962  1  0.43840000  0.10240000  0.80900000  1.0
  C  C1963  1  0.49590000  0.15220000  0.81490000  1.0
  C  C1964  1  0.53200000  0.16530000  0.79970000  1.0
  C  C1965  1  0.69700000  0.12860000  0.52640000  1.0
  C  C1966  1  0.66070000  0.09450000  0.54740000  1.0
  C  C1967  1  0.66720000  0.08420000  0.57200000  1.0
  C  C1968  1  0.62210000  0.05500000  0.58250000  1.0
  C  C1969  1  0.60830000  0.03340000  0.60970000  1.0
  C  C1970  1  0.44310000  0.94600000  0.61310000  1.0
  C  C1971  1  0.42880000  0.95690000  0.59210000  1.0
  C  C1972  1  0.39630000  0.95400000  0.59250000  1.0
  C  C1973  1  0.40040000  0.97160000  0.56720000  1.0
  C  C1974  1  0.37350000  0.97640000  0.55430000  1.0
  C  C1975  1  0.58870000  0.61020000  0.61130000  1.0
  C  C1976  1  0.60150000  0.62350000  0.58200000  1.0
  C  C1977  1  0.63900000  0.67330000  0.57410000  1.0
  C  C1978  1  0.63090000  0.65770000  0.54380000  1.0
  C  C1979  1  0.66075000  0.69440000  0.52235000  1.0
  C  C1980  1  0.06270000  0.04910000  0.40960000  1.0
  C  C1981  1  0.07690000  0.03740000  0.43110000  1.0
  C  C1982  1  0.11257000  0.04440000  0.43377000  1.0
  C  C1983  1  0.11010000  0.02861000  0.45791000  1.0
  C  C1984  1  0.13940000  0.02670000  0.47110000  1.0
  C  C1985  1  0.04710000  0.91650000  0.54500000  1.0
  C  C1986  1  0.00110000  0.89820000  0.54450000  1.0
  C  C1987  1  0.95660000  0.85710000  0.55710000  1.0
  C  C1988  1  0.92610000  0.85640000  0.55110000  1.0
  C  C1989  1  0.87260000  0.81920000  0.55760000  1.0
  C  C1990  1  0.78370000  0.81780000  0.48250000  1.0
  C  C1991  1  0.82320000  0.85820000  0.46560000  1.0
  C  C1992  1  0.81940000  0.87050000  0.44130000  1.0
  C  C1993  1  0.87110000  0.91360000  0.43610000  1.0
  C  C1994  1  0.88930000  0.94090000  0.41160000  1.0
  C  C1995  1  0.83640000  0.32700000  0.21060000  1.0
  C  C1996  1  0.86200000  0.37800000  0.22000000  1.0
  C  C1997  1  0.91860000  0.43140000  0.23440000  1.0
  C  C1998  1  0.92060000  0.46310000  0.23790000  1.0
  C  C1999  1  0.96920000  0.52440000  0.25180000  1.0
  C  C2000  1  0.92850000  0.58020000  0.21450000  1.0
  C  C2001  1  0.87430000  0.53540000  0.19190000  1.0
  C  C2002  1  0.85290000  0.53570000  0.16900000  1.0
  C  C2003  1  0.79850000  0.48040000  0.15730000  1.0
  C  C2004  1  0.75460000  0.45590000  0.13110000  1.0
  C  C2005  1  0.61990000  0.25960000  0.09490000  1.0
  C  C2006  1  0.63900000  0.25020000  0.11480000  1.0
  C  C2007  1  0.62710000  0.21140000  0.10910000  1.0
  C  C2008  1  0.65720000  0.22540000  0.13620000  1.0
  C  C2009  1  0.66080000  0.19630000  0.14530000  1.0
  C  C2010  1  0.88110000  0.56040000  0.10490000  1.0
  C  C2011  1  0.89530000  0.59400000  0.13210000  1.0
  C  C2012  1  0.88330000  0.58390000  0.15980000  1.0
  C  C2013  1  0.90900000  0.62970000  0.17690000  1.0
  C  C2014  1  0.91150000  0.64370000  0.20900000  1.0
  C  C2015  1  0.02530000  0.82530000  0.23880000  1.0
  C  C2016  1  0.04390000  0.84850000  0.21220000  1.0
  C  C2017  1  0.08100000  0.90120000  0.21180000  1.0
  C  C2018  1  0.08350000  0.90090000  0.18160000  1.0
  C  C2019  1  0.11660000  0.94560000  0.16660000  1.0
  C  C2020  1  0.09640000  0.87420000  0.06200000  1.0
  C  C2021  1  0.05450000  0.81510000  0.05800000  1.0
  C  C2022  1  0.03180000  0.77480000  0.03360000  1.0
  C  C2023  1  0.99860000  0.72973000  0.04493000  1.0
  C  C2024  1  0.96300000  0.67430000  0.02990000  1.0
  C  C2025  1  0.04000000  0.91580000  0.25660000  1.0
  C  C2026  1  0.09560000  0.95200000  0.25740000  1.0
  C  C2027  1  0.11280000  0.94670000  0.23750000  1.0
  C  C2028  1  0.16990000  0.99350000  0.25080000  1.0
  C  C2029  1  0.21090000  0.00960000  0.23890000  1.0
  C  C2030  1  0.38230000  0.16000000  0.31110000  1.0
  C  C2031  1  0.37960000  0.17520000  0.34020000  1.0
  C  C2032  1  0.41300000  0.20470000  0.36950000  1.0
  C  C2033  1  0.38890000  0.20500000  0.38590000  1.0
  C  C2034  1  0.40920000  0.23200000  0.41980000  1.0
  C  C2035  1  0.24400000  0.14360000  0.44200000  1.0
  C  C2036  1  0.19720000  0.10020000  0.41500000  1.0
  C  C2037  1  0.13990000  0.05760000  0.41010000  1.0
  C  C2038  1  0.11734000  0.03080000  0.37974000  1.0
  C  C2039  1  0.05880000  0.98170000  0.36130000  1.0
  C  C2040  1  0.53920000  0.33590000  0.40010000  1.0
  C  C2041  1  0.51830000  0.28680000  0.39290000  1.0
  C  C2042  1  0.46280000  0.22880000  0.38000000  1.0
  C  C2043  1  0.46820000  0.20410000  0.37890000  1.0
  C  C2044  1  0.42560000  0.14520000  0.36860000  1.0
  C  C2045  1  0.49980000  0.11810000  0.40730000  1.0
  C  C2046  1  0.55500000  0.17080000  0.42860000  1.0
  C  C2047  1  0.58440000  0.18010000  0.45310000  1.0
  C  C2048  1  0.63170000  0.23450000  0.46400000  1.0
  C  C2049  1  0.68130000  0.27030000  0.49020000  1.0
  C  C2050  1  0.78840000  0.45390000  0.52190000  1.0
  C  C2051  1  0.76098000  0.45172000  0.50030000  1.0
  C  C2052  1  0.76400000  0.48410000  0.50330000  1.0
  C  C2053  1  0.72860000  0.46270000  0.47470000  1.0
  C  C2054  1  0.71410000  0.48030000  0.46600000  1.0
  C  C2055  1  0.27170000  0.90920000  0.88450000  1.0
  C  C2056  1  0.23930000  0.87440000  0.90590000  1.0
  C  C2057  1  0.25050000  0.86550000  0.92880000  1.0
  C  C2058  1  0.20750000  0.83050000  0.94140000  1.0
  C  C2059  1  0.19570000  0.80530000  0.96640000  1.0
  C  C2060  1  0.07780000  0.75620000  0.00540000  1.0
  C  C2061  1  0.05960000  0.76850000  0.99090000  1.0
  C  C2062  1  0.04240000  0.77980000  0.00400000  1.0
  C  C2063  1  0.03420000  0.79189000  0.98069000  1.0
  C  C2064  1  0.01650000  0.80820000  0.98030000  1.0
  C  C2065  1  0.04510000  0.86460000  0.87870000  1.0
  C  C2066  1  0.08070000  0.87130000  0.87000000  1.0
  C  C2067  1  0.11550000  0.90240000  0.85050000  1.0
  C  C2068  1  0.13950000  0.89470000  0.85120000  1.0
  C  C2069  1  0.18000000  0.91690000  0.83530000  1.0
  C  C2070  1  0.76060000  0.98540000  0.40840000  1.0
  C  C2071  1  0.70790000  0.93801000  0.38251000  1.0
  C  C2072  1  0.68100000  0.93540000  0.36240000  1.0
  C  C2073  1  0.63480000  0.88130000  0.34430000  1.0
  C  C2074  1  0.58820000  0.85160000  0.31800000  1.0
  C  C2075  1  0.71300000  0.98270000  0.30610000  1.0
  C  C2076  1  0.71207000  0.99936000  0.33323000  1.0
  C  C2077  1  0.69840000  0.97980000  0.35860000  1.0
  C  C2078  1  0.70620000  0.01080000  0.37900000  1.0
  C  C2079  1  0.69930000  0.00960000  0.41070000  1.0
  C  C2080  1  0.69870000  0.74430000  0.39820000  1.0
  C  C2081  1  0.72110000  0.79380000  0.40530000  1.0
  C  C2082  1  0.77302000  0.84800000  0.42362000  1.0
  C  C2083  1  0.76943000  0.87484000  0.42107000  1.0
  C  C2084  1  0.81270000  0.93420000  0.43710000  1.0
  C  C2085  1  0.18330000  0.47060000  0.32410000  1.0
  C  C2086  1  0.13750000  0.45280000  0.32450000  1.0
  C  C2087  1  0.09440000  0.41310000  0.33690000  1.0
  C  C2088  1  0.06210000  0.41130000  0.33100000  1.0
  C  C2089  1  0.01160000  0.37740000  0.33820000  1.0
  C  C2090  1  0.93890000  0.40400000  0.28710000  1.0
  C  C2091  1  0.97320000  0.43790000  0.26630000  1.0
  C  C2092  1  0.96405000  0.44910000  0.24375000  1.0
  C  C2093  1  0.00760000  0.48140000  0.23120000  1.0
  C  C2094  1  0.01990000  0.50430000  0.20500000  1.0
  C  C2095  1  0.07900000  0.39750000  0.40470000  1.0
  C  C2096  1  0.07100000  0.36850000  0.37950000  1.0
  C  C2097  1  0.08040000  0.37670000  0.35130000  1.0
  C  C2098  1  0.06750000  0.33760000  0.33790000  1.0
  C  C2099  1  0.06790000  0.32480000  0.30730000  1.0
  C  C2100  1  0.94370000  0.84110000  0.62540000  1.0
  C  C2101  1  0.93660000  0.81190000  0.59870000  1.0
  C  C2102  1  0.94410000  0.82000000  0.56970000  1.0
  C  C2103  1  0.93140000  0.78170000  0.55530000  1.0
  C  C2104  1  0.93230000  0.77080000  0.52470000  1.0
  C  C2105  1  0.85210000  0.60920000  0.50230000  1.0
  C  C2106  1  0.83200000  0.58390000  0.52810000  1.0
  C  C2107  1  0.79350000  0.53010000  0.52820000  1.0
  C  C2108  1  0.78940000  0.52880000  0.55860000  1.0
  C  C2109  1  0.75650000  0.48350000  0.57420000  1.0
  C  C2110  1  0.03810000  0.87270000  0.79760000  1.0
  C  C2111  1  0.09634000  0.92619000  0.81353000  1.0
  C  C2112  1  0.12940000  0.93840000  0.83600000  1.0
  C  C2113  1  0.18100000  0.99590000  0.84370000  1.0
  C  C2114  1  0.23230000  0.03200000  0.86670000  1.0
  C  C2115  1  0.67060000  0.19700000  0.06840000  1.0
  C  C2116  1  0.61330000  0.16070000  0.06620000  1.0
  C  C2117  1  0.59520000  0.16720000  0.08300000  1.0
  C  C2118  1  0.53960000  0.12210000  0.06710000  1.0
  C  C2119  1  0.49860000  0.10830000  0.07490000  1.0
  C  C2120  1  0.33000000  0.94310000  0.99710000  1.0
  C  C2121  1  0.33670000  0.92880000  0.97190000  1.0
  C  C2122  1  0.30380000  0.89630000  0.94230000  1.0
  C  C2123  1  0.33320000  0.90040000  0.92880000  1.0
  C  C2124  1  0.31920000  0.87350000  0.89710000  1.0
  C  C2125  1  0.47740000  0.08870000  0.47850000  1.0
  C  C2126  1  0.51950000  0.10150000  0.47800000  1.0
  C  C2127  1  0.56490000  0.13900000  0.46570000  1.0
  C  C2128  1  0.58710000  0.13090000  0.47320000  1.0
  C  C2129  1  0.63840000  0.16075000  0.46635000  1.0
  C  C2130  1  0.13950000  0.65310000  0.09040000  1.0
  C  C2131  1  0.10630000  0.64580000  0.06890000  1.0
  C  C2132  1  0.11063000  0.67880000  0.06623000  1.0
  C  C2133  1  0.07070000  0.65219000  0.04209000  1.0
  C  C2134  1  0.05560000  0.66830000  0.02890000  1.0
  C  C2135  1  0.87150000  0.50210000  0.95500000  1.0
  C  C2136  1  0.85370000  0.45660000  0.95550000  1.0
  C  C2137  1  0.80000000  0.39950000  0.94290000  1.0
  C  C2138  1  0.80530000  0.37500000  0.94890000  1.0
  C  C2139  1  0.76160000  0.31500000  0.94240000  1.0
  C  C2140  1  0.83530000  0.30120000  0.01750000  1.0
  C  C2141  1  0.89260000  0.35760000  0.03440000  1.0
  C  C2142  1  0.92920000  0.37810000  0.05870000  1.0
  C  C2143  1  0.97750000  0.43500000  0.06390000  1.0
  C  C2144  1  0.02930000  0.47770000  0.08840000  1.0
  C  C2145  1  0.61640000  0.62580000  0.28940000  1.0
  C  C2146  1  0.65800000  0.64200000  0.28000000  1.0
  C  C2147  1  0.69700000  0.68420000  0.26560000  1.0
  C  C2148  1  0.72520000  0.68270000  0.26210000  1.0
  C  C2149  1  0.77260000  0.71740000  0.24820000  1.0
  C  C2150  1  0.86570000  0.71400000  0.28550000  1.0
  C  C2151  1  0.84350000  0.68240000  0.30810000  1.0
  C  C2152  1  0.86670000  0.68390000  0.33100000  1.0
  C  C2153  1  0.82310000  0.64120000  0.34270000  1.0
  C  C2154  1  0.82480000  0.62350000  0.36890000  1.0
  C  C2155  1  0.66470000  0.52500000  0.40510000  1.0
  C  C2156  1  0.63540000  0.52420000  0.38520000  1.0
  C  C2157  1  0.60230000  0.51800000  0.39090000  1.0
  C  C2158  1  0.58920000  0.52100000  0.36380000  1.0
  C  C2159  1  0.55100000  0.51550000  0.35470000  1.0
  C  C2160  1  0.95550000  0.77620000  0.39510000  1.0
  C  C2161  1  0.96190000  0.76320000  0.36790000  1.0
  C  C2162  1  0.92410000  0.72350000  0.34020000  1.0
  C  C2163  1  0.95280000  0.73210000  0.32310000  1.0
  C  C2164  1  0.93470000  0.70250000  0.29100000  1.0
  C  C2165  1  0.08650000  0.78650000  0.26120000  1.0
  C  C2166  1  0.13630000  0.83170000  0.28780000  1.0
  C  C2167  1  0.18940000  0.86920000  0.28820000  1.0
  C  C2168  1  0.21930000  0.90190000  0.31840000  1.0
  C  C2169  1  0.27900000  0.95000000  0.33340000  1.0
  C  C2170  1  0.31220000  0.03440000  0.43800000  1.0
  C  C2171  1  0.25710000  0.99650000  0.44200000  1.0
  C  C2172  1  0.24120000  0.99820000  0.46640000  1.0
  C  C2173  1  0.18480000  0.95367000  0.45507000  1.0
  C  C2174  1  0.14440000  0.93310000  0.47010000  1.0
  C  C2175  1  0.15920000  0.78340000  0.24340000  1.0
  C  C2176  1  0.19460000  0.83820000  0.24260000  1.0
  C  C2177  1  0.20920000  0.87530000  0.26250000  1.0
  C  C2178  1  0.24270000  0.91910000  0.24920000  1.0
  C  C2179  1  0.27070000  0.97200000  0.26110000  1.0
  C  C2180  1  0.34890000  0.07120000  0.18890000  1.0
  C  C2181  1  0.33500000  0.03940000  0.15980000  1.0
  C  C2182  1  0.33520000  0.04350000  0.13050000  1.0
  C  C2183  1  0.31910000  0.00300000  0.11410000  1.0
  C  C2184  1  0.31220000  0.98940000  0.08020000  1.0
  C  C2185  1  0.20160000  0.80200000  0.05800000  1.0
  C  C2186  1  0.18520000  0.78220000  0.08500000  1.0
  C  C2187  1  0.14750000  0.72980000  0.08990000  1.0
  C  C2188  1  0.15106000  0.73760000  0.12026000  1.0
  C  C2189  1  0.12040000  0.69750000  0.13870000  1.0
  C  C2190  1  0.43580000  0.13910000  0.09990000  1.0
  C  C2191  1  0.39390000  0.12540000  0.10710000  1.0
  C  C2192  1  0.34880000  0.08280000  0.12000000  1.0
  C  C2193  1  0.32520000  0.08930000  0.12110000  1.0
  C  C2194  1  0.27660000  0.05700000  0.13140000  1.0
  C  C2195  1  0.21080000  0.09250000  0.09270000  1.0
  C  C2196  1  0.24220000  0.12640000  0.07140000  1.0
  C  C2197  1  0.22700000  0.13130000  0.04690000  1.0
  C  C2198  1  0.27050000  0.16770000  0.03600000  1.0
  C  C2199  1  0.28010000  0.19110000  0.00980000  1.0
  C  C2200  1  0.43200000  0.26650000  0.97810000  1.0
  C  C2201  1  0.45142000  0.26068000  0.99970000  1.0
  C  C2202  1  0.48080000  0.26070000  0.99670000  1.0
  C  C2203  1  0.48800000  0.25390000  0.02530000  1.0
  C  C2204  1  0.51430000  0.24810000  0.03400000  1.0
  C  C2205  1  0.52470000  0.38720000  0.61550000  1.0
  C  C2206  1  0.46850000  0.33340000  0.59410000  1.0
  C  C2207  1  0.43670000  0.32170000  0.57120000  1.0
  C  C2208  1  0.38910000  0.26610000  0.55860000  1.0
  C  C2209  1  0.33890000  0.22930000  0.53360000  1.0
  C  C2210  1  0.25080000  0.07240000  0.49460000  1.0
  C  C2211  1  0.27760000  0.06870000  0.50910000  1.0
  C  C2212  1  0.27580000  0.03840000  0.49600000  1.0
  C  C2213  1  0.31120000  0.05351000  0.51931000  1.0
  C  C2214  1  0.32790000  0.03620000  0.51970000  1.0
  C  C2215  1  0.48590000  0.16640000  0.62130000  1.0
  C  C2216  1  0.50130000  0.21070000  0.63000000  1.0
  C  C2217  1  0.55190000  0.26500000  0.64950000  1.0
  C  C2218  1  0.54350000  0.28830000  0.64880000  1.0
  C  C2219  1  0.58160000  0.34470000  0.66470000  1.0
  C  C2220  1  0.07700000  0.35220000  0.09160000  1.0
  C  C2221  1  0.05550000  0.32539000  0.11749000  1.0
  C  C2222  1  0.07300000  0.31860000  0.13760000  1.0
  C  C2223  1  0.03700000  0.29050000  0.15570000  1.0
  C  C2224  1  0.03360000  0.27020000  0.18200000  1.0
  C  C2225  1  0.17660000  0.40690000  0.19390000  1.0
  C  C2226  1  0.16613000  0.37884000  0.16677000  1.0
  C  C2227  1  0.12120000  0.33980000  0.14140000  1.0
  C  C2228  1  0.13180000  0.32720000  0.12100000  1.0
  C  C2229  1  0.09890000  0.28860000  0.08930000  1.0
  C  C2230  1  0.84610000  0.30050000  0.10180000  1.0
  C  C2231  1  0.88850000  0.31580000  0.09470000  1.0
  C  C2232  1  0.92438000  0.34940000  0.07638000  1.0
  C  C2233  1  0.95377000  0.34836000  0.07893000  1.0
  C  C2234  1  0.99710000  0.37560000  0.06290000  1.0
  C  C2235  1  0.64650000  0.85920000  0.17590000  1.0
  C  C2236  1  0.62830000  0.81300000  0.17550000  1.0
  C  C2237  1  0.57620000  0.75750000  0.16310000  1.0
  C  C2238  1  0.58030000  0.73110000  0.16900000  1.0
  C  C2239  1  0.53920000  0.67340000  0.16180000  1.0
  C  C2240  1  0.61690000  0.65180000  0.21290000  1.0
  C  C2241  1  0.67160000  0.70690000  0.23370000  1.0
  C  C2242  1  0.70535000  0.72030000  0.25625000  1.0
  C  C2243  1  0.75020000  0.77640000  0.26880000  1.0
  C  C2244  1  0.79930000  0.81490000  0.29500000  1.0
  C  C2245  1  0.49280000  0.67430000  0.09530000  1.0
  C  C2246  1  0.48900000  0.69150000  0.12050000  1.0
  C  C2247  1  0.52540000  0.72910000  0.14870000  1.0
  C  C2248  1  0.49970000  0.72960000  0.16210000  1.0
  C  C2249  1  0.51750000  0.76060000  0.19270000  1.0
  C  C2250  1  0.71570000  0.31830000  0.87460000  1.0
  C  C2251  1  0.71320000  0.33790000  0.90130000  1.0
  C  C2252  1  0.75030000  0.37440000  0.93030000  1.0
  C  C2253  1  0.72640000  0.37610000  0.94470000  1.0
  C  C2254  1  0.74610000  0.40760000  0.97530000  1.0
  C  C2255  1  0.60690000  0.34980000  0.99770000  1.0
  C  C2256  1  0.55580000  0.30390000  0.97190000  1.0
  C  C2257  1  0.50190000  0.26530000  0.97180000  1.0
  C  C2258  1  0.47020000  0.23080000  0.94140000  1.0
  C  C2259  1  0.40930000  0.18230000  0.92580000  1.0
  C  C2260  1  0.57510000  0.24050000  0.70240000  1.0
  C  C2261  1  0.61266000  0.28281000  0.68647000  1.0
  C  C2262  1  0.60240000  0.29340000  0.66400000  1.0
  C  C2263  1  0.65220000  0.33730000  0.65630000  1.0
  C  C2264  1  0.66530000  0.36560000  0.63330000  1.0
  C  C2265  1  0.62860000  0.60220000  0.43160000  1.0
  C  C2266  1  0.59450000  0.54710000  0.43380000  1.0
  C  C2267  1  0.58420000  0.51220000  0.41700000  1.0
  C  C2268  1  0.55500000  0.47250000  0.43290000  1.0
  C  C2269  1  0.53340000  0.42370000  0.42510000  1.0
  C  C2270  1  0.44600000  0.33290000  0.50290000  1.0
  C  C2271  1  0.45690000  0.36480000  0.52810000  1.0
  C  C2272  1  0.45400000  0.36150000  0.55770000  1.0
  C  C2273  1  0.47160000  0.40440000  0.57120000  1.0
  C  C2274  1  0.47640000  0.42210000  0.60290000  1.0
  C  C2275  1  0.11020000  0.99890000  0.02150000  1.0
  C  C2276  1  0.12350000  0.04150000  0.02200000  1.0
  C  C2277  1  0.17330000  0.09920000  0.03430000  1.0
  C  C2278  1  0.15770000  0.11390000  0.02680000  1.0
  C  C2279  1  0.19440000  0.17205000  0.03365000  1.0
  C  C2280  1  0.84690000  0.43730000  0.48640000  1.0
  C  C2281  1  0.85420000  0.42310000  0.46050000  1.0
  C  C2282  1  0.82120000  0.38743000  0.43183000  1.0
  C  C2283  1  0.84781000  0.38990000  0.41851000  1.0
  C  C2284  1  0.83170000  0.36060000  0.38730000  1.0
  C  C2285  1  0.99790000  0.45290000  0.36940000  1.0
  C  C2286  1  0.04340000  0.49890000  0.39710000  1.0
  C  C2287  1  0.10050000  0.54340000  0.40050000  1.0
  C  C2288  1  0.12500000  0.57390000  0.43030000  1.0
  C  C2289  1  0.18500000  0.62740000  0.44660000  1.0
  C  C2290  1  0.19880000  0.71630000  0.53410000  1.0
  C  C2291  1  0.14240000  0.67680000  0.53500000  1.0
  C  C2292  1  0.12190000  0.68060000  0.55110000  1.0
  C  C2293  1  0.06500000  0.62890000  0.54250000  1.0
  C  C2294  1  0.02230000  0.61070000  0.55160000  1.0
  C  C2295  1  0.87420000  0.66360000  0.99060000  1.0
  C  C2296  1  0.85800000  0.63800000  0.01600000  1.0
  C  C2297  1  0.81580000  0.58140000  0.01280000  1.0
  C  C2298  1  0.81730000  0.57940000  0.04250000  1.0
  C  C2299  1  0.78260000  0.53080000  0.05520000  1.0
  C  C2300  1  0.78600000  0.57150000  0.15170000  1.0
  C  C2301  1  0.81760000  0.62570000  0.16110000  1.0
  C  C2302  1  0.81610000  0.64710000  0.18280000  1.0
  C  C2303  1  0.85880000  0.70150000  0.18190000  1.0
  C  C2304  1  0.87650000  0.74540000  0.20130000  1.0
  C  C2305  1  0.97500000  0.88010000  0.13970000  1.0
  C  C2306  1  0.97580000  0.86100000  0.11120000  1.0
  C  C2307  1  0.98200000  0.87290000  0.08430000  1.0
  C  C2308  1  0.97900000  0.84280000  0.06820000  1.0
  C  C2309  1  0.98450000  0.83920000  0.03550000  1.0
  C  C2310  1  0.72380000  0.61890000  0.17930000  1.0
  C  C2311  1  0.73680000  0.60470000  0.19870000  1.0
  C  C2312  1  0.77650000  0.61670000  0.20060000  1.0
  C  C2313  1  0.76790000  0.59100000  0.22070000  1.0
  C  C2314  1  0.79750000  0.58850000  0.23220000  1.0
  C  C2315  1  0.71350000  0.47470000  0.30000000  1.0
  C  C2316  1  0.66830000  0.45610000  0.30460000  1.0
  C  C2317  1  0.63080000  0.41900000  0.32020000  1.0
  C  C2318  1  0.59810000  0.41650000  0.31740000  1.0
  C  C2319  1  0.55000000  0.38340000  0.32900000  1.0
  C  C2320  1  0.46560000  0.40360000  0.27780000  1.0
  C  C2321  1  0.50350000  0.44550000  0.26060000  1.0
  C  C2322  1  0.50180000  0.46820000  0.24300000  1.0
  C  C2323  1  0.54633000  0.50140000  0.23113000  1.0
  C  C2324  1  0.56690000  0.53700000  0.21130000  1.0
  C  C2325  1  0.71660000  0.46000000  0.37580000  1.0
  C  C2326  1  0.66180000  0.40440000  0.35640000  1.0
  C  C2327  1  0.62470000  0.38720000  0.33390000  1.0
  C  C2328  1  0.58090000  0.33010000  0.32360000  1.0
  C  C2329  1  0.52800000  0.28910000  0.29870000  1.0
  C  C2330  1  0.42880000  0.11770000  0.27770000  1.0
  C  C2331  1  0.46060000  0.12040000  0.29560000  1.0
  C  C2332  1  0.45650000  0.08700000  0.29170000  1.0
  C  C2333  1  0.49700000  0.11110000  0.31610000  1.0
  C  C2334  1  0.51060000  0.09080000  0.32280000  1.0
  C  C2335  1  0.69800000  0.25600000  0.39960000  1.0
  C  C2336  1  0.71780000  0.30280000  0.40300000  1.0
  C  C2337  1  0.77020000  0.36010000  0.41770000  1.0
  C  C2338  1  0.76240000  0.38266000  0.41346000  1.0
  C  C2339  1  0.80250000  0.44120000  0.42290000  1.0
  C  C2340  1  0.36090000  0.96080000  0.29670000  1.0
  C  C2341  1  0.37460000  0.98170000  0.26850000  1.0
  C  C2342  1  0.41720000  0.03720000  0.26600000  1.0
  C  C2343  1  0.41070000  0.03180000  0.23590000  1.0
  C  C2344  1  0.44300000  0.07440000  0.21960000  1.0
  C  C2345  1  0.40750000  0.00020000  0.11830000  1.0
  C  C2346  1  0.37360000  0.94500000  0.11580000  1.0
  C  C2347  1  0.36870000  0.91560000  0.09570000  1.0
  C  C2348  1  0.33230000  0.86830000  0.10280000  1.0
  C  C2349  1  0.30890000  0.81870000  0.08900000  1.0
  C  C2350  1  0.23350000  0.71160000  0.16550000  1.0
  C  C2351  1  0.23932000  0.73902000  0.19074000  1.0
  C  C2352  1  0.23930000  0.73600000  0.22010000  1.0
  C  C2353  1  0.24610000  0.77140000  0.23410000  1.0
  C  C2354  1  0.25190000  0.78590000  0.26620000  1.0
  C  C2355  1  0.11280000  0.22830000  0.13750000  1.0
  C  C2356  1  0.16660000  0.26070000  0.13510000  1.0
  C  C2357  1  0.17830000  0.24950000  0.11500000  1.0
  C  C2358  1  0.23390000  0.29250000  0.12300000  1.0
  C  C2359  1  0.27070000  0.30430000  0.10960000  1.0
  C  C2360  1  0.42760000  0.42220000  0.17840000  1.0
  C  C2361  1  0.43130000  0.44040000  0.20890000  1.0
  C  C2362  1  0.46160000  0.45760000  0.23740000  1.0
  C  C2363  1  0.44649000  0.46580000  0.25769000  1.0
  C  C2364  1  0.46380000  0.48350000  0.29170000  1.0
  C  C2365  1  0.33360000  0.45490000  0.31950000  1.0
  C  C2366  1  0.28930000  0.41930000  0.29060000  1.0
  C  C2367  1  0.23500000  0.38450000  0.28690000  1.0
  C  C2368  1  0.21170000  0.36050000  0.25520000  1.0
  C  C2369  1  0.15530000  0.32000000  0.23690000  1.0
  C  C2370  1  0.14780000  0.73940000  0.72480000  1.0
  C  C2371  1  0.17461000  0.79210000  0.73011000  1.0
  C  C2372  1  0.18140000  0.81900000  0.75440000  1.0
  C  C2373  1  0.20950000  0.86520000  0.74650000  1.0
  C  C2374  1  0.22980000  0.91180000  0.76340000  1.0
  C  C2375  1  0.09310000  0.78700000  0.76970000  1.0
  C  C2376  1  0.12116000  0.78793000  0.78729000  1.0
  C  C2377  1  0.16020000  0.80160000  0.78140000  1.0
  C  C2378  1  0.17280000  0.79380000  0.80460000  1.0
  C  C2379  1  0.21140000  0.80070000  0.81030000  1.0
  C  C2380  1  0.19950000  0.80130000  0.54560000  1.0
  C  C2381  1  0.18420000  0.77890000  0.57270000  1.0
  C  C2382  1  0.15060000  0.72698000  0.57498000  1.0
  C  C2383  1  0.15164000  0.73057000  0.60541000  1.0
  C  C2384  1  0.12440000  0.68730000  0.62150000  1.0
  C  C2385  1  0.64080000  0.31670000  0.78730000  1.0
  C  C2386  1  0.68700000  0.36250000  0.81530000  1.0
  C  C2387  1  0.74250000  0.40560000  0.81870000  1.0
  C  C2388  1  0.76890000  0.43790000  0.84920000  1.0
  C  C2389  1  0.82660000  0.48840000  0.86580000  1.0
  C  C2390  1  0.84820000  0.56110000  0.96510000  1.0
  C  C2391  1  0.79310000  0.52680000  0.96470000  1.0
  C  C2392  1  0.77970000  0.53595000  0.98505000  1.0
  C  C2393  1  0.72360000  0.49240000  0.97380000  1.0
  C  C2394  1  0.68510000  0.48010000  0.98440000  1.0
  C  C2395  1  0.82570000  0.42100000  0.81850000  1.0
  C  C2396  1  0.80850000  0.42900000  0.79750000  1.0
  C  C2397  1  0.77090000  0.41960000  0.79630000  1.0
  C  C2398  1  0.77040000  0.43250000  0.77010000  1.0
  C  C2399  1  0.73940000  0.43210000  0.75690000  1.0
  C  C2400  1  0.18170000  0.55630000  0.39740000  1.0
  C  C2401  1  0.16210000  0.56340000  0.37530000  1.0
  C  C2402  1  0.12560000  0.55590000  0.37590000  1.0
  C  C2403  1  0.12390000  0.56860000  0.35030000  1.0
  C  C2404  1  0.09240000  0.56770000  0.33850000  1.0
  C  C2405  1  0.15020000  0.64790000  0.25710000  1.0
  C  C2406  1  0.19610000  0.66800000  0.25190000  1.0
  C  C2407  1  0.23470000  0.70650000  0.23660000  1.0
  C  C2408  1  0.26920000  0.71060000  0.23940000  1.0
  C  C2409  1  0.31770000  0.74350000  0.22700000  1.0
  C  C2410  1  0.25950000  0.46190000  0.33460000  1.0
  C  C2411  1  0.21719000  0.40366000  0.32985000  1.0
  C  C2412  1  0.20660000  0.37060000  0.30900000  1.0
  C  C2413  1  0.16270000  0.31900000  0.31490000  1.0
  C  C2414  1  0.13440000  0.26770000  0.29970000  1.0
  C  C2415  1  0.89780000  0.82940000  0.02640000  1.0
  C  C2416  1  0.95290000  0.88670000  0.04740000  1.0
  C  C2417  1  0.98780000  0.90480000  0.07200000  1.0
  C  C2418  1  0.02750000  0.96040000  0.08250000  1.0
  C  C2419  1  0.07630000  0.00140000  0.10970000  1.0
  C  C2420  1  0.16710000  0.17000000  0.11310000  1.0
  C  C2421  1  0.13520000  0.16330000  0.09210000  1.0
  C  C2422  1  0.13850000  0.19620000  0.09250000  1.0
  C  C2423  1  0.09560000  0.16680000  0.06720000  1.0
  C  C2424  1  0.07790000  0.18080000  0.05430000  1.0
  C  C2425  1  0.50110000  0.02260000  0.11130000  1.0
  C  C2426  1  0.45850000  0.98050000  0.08200000  1.0
  C  C2427  1  0.40080000  0.93510000  0.07410000  1.0
  C  C2428  1  0.38610000  0.91290000  0.04380000  1.0
  C  C2429  1  0.32795000  0.86160000  0.02235000  1.0
  C  C2430  1  0.45090000  0.36050000  0.01360000  1.0
  C  C2431  1  0.46260000  0.39370000  0.03950000  1.0
  C  C2432  1  0.45560000  0.38937000  0.06817000  1.0
  C  C2433  1  0.47139000  0.42930000  0.08149000  1.0
  C  C2434  1  0.47330000  0.44440000  0.11270000  1.0
  C  C2435  1  0.58350000  0.62850000  0.13060000  1.0
  C  C2436  1  0.60180000  0.64630000  0.10290000  1.0
  C  C2437  1  0.64290000  0.70000000  0.09950000  1.0
  C  C2438  1  0.64360000  0.69470000  0.06970000  1.0
  C  C2439  1  0.68080000  0.73840000  0.05340000  1.0
  C  C2440  1  0.68220000  0.66470000  0.96590000  1.0
  C  C2441  1  0.64180000  0.60740000  0.96500000  1.0
  C  C2442  1  0.62950000  0.57080000  0.94890000  1.0
  C  C2443  1  0.58640000  0.52250000  0.95750000  1.0
  C  C2444  1  0.55910000  0.47070000  0.94840000  1.0
  C  C2445  1  0.17300000  0.88360000  0.50940000  1.0
  C  C2446  1  0.12200000  0.84200000  0.48400000  1.0
  C  C2447  1  0.06860000  0.80300000  0.48720000  1.0
  C  C2448  1  0.03690000  0.77480000  0.45750000  1.0
  C  C2449  1  0.97560000  0.72740000  0.44480000  1.0
  C  C2450  1  0.91980000  0.63430000  0.34830000  1.0
  C  C2451  1  0.96460000  0.65650000  0.33890000  1.0
  C  C2452  1  0.96430000  0.63330000  0.31720000  1.0
  C  C2453  1  0.01960000  0.67690000  0.31810000  1.0
  C  C2454  1  0.04410000  0.67520000  0.29870000  1.0
  C  C2455  1  0.24040000  0.83530000  0.36030000  1.0
  C  C2456  1  0.24980000  0.86460000  0.38880000  1.0
  C  C2457  1  0.28860000  0.89770000  0.41570000  1.0
  C  C2458  1  0.27460000  0.91080000  0.43180000  1.0
  C  C2459  1  0.30370000  0.94900000  0.46450000  1.0
  C  C2460  1  0.93960000  0.54450000  0.32070000  1.0
  C  C2461  1  0.90600000  0.53810000  0.30130000  1.0
  C  C2462  1  0.91610000  0.57590000  0.29940000  1.0
  C  C2463  1  0.87030000  0.54720000  0.27930000  1.0
  C  C2464  1  0.85630000  0.56530000  0.26780000  1.0
  C  C2465  1  0.67470000  0.41350000  0.20000000  1.0
  C  C2466  1  0.65150000  0.36370000  0.19540000  1.0
  C  C2467  1  0.59880000  0.31060000  0.17980000  1.0
  C  C2468  1  0.59910000  0.28070000  0.18260000  1.0
  C  C2469  1  0.55440000  0.22100000  0.17100000  1.0
  C  C2470  1  0.62580000  0.18780000  0.22220000  1.0
  C  C2471  1  0.68490000  0.24290000  0.23940000  1.0
  C  C2472  1  0.72520000  0.25880000  0.25700000  1.0
  C  C2473  1  0.77027000  0.31520000  0.26887000  1.0
  C  C2474  1  0.82570000  0.35560000  0.28870000  1.0
  C  C2475  1  0.58420000  0.34080000  0.12420000  1.0
  C  C2476  1  0.54800000  0.30540000  0.14360000  1.0
  C  C2477  1  0.55330000  0.29080000  0.16610000  1.0
  C  C2478  1  0.50650000  0.25730000  0.17640000  1.0
  C  C2479  1  0.49040000  0.22930000  0.20130000  1.0
  C  C2480  1  0.34000000  0.15110000  0.22230000  1.0
  C  C2481  1  0.32480000  0.16500000  0.20440000  1.0
  C  C2482  1  0.29530000  0.16480000  0.20830000  1.0
  C  C2483  1  0.29500000  0.18090000  0.18390000  1.0
  C  C2484  1  0.26800000  0.18780000  0.17720000  1.0
  C  C2485  1  0.35640000  0.29840000  0.10040000  1.0
  C  C2486  1  0.39980000  0.31480000  0.09700000  1.0
  C  C2487  1  0.44240000  0.35250000  0.08230000  1.0
  C  C2488  1  0.46920000  0.34894000  0.08654000  1.0
  C  C2489  1  0.51830000  0.37960000  0.07710000  1.0
  C  C2490  1  0.16410000  0.06420000  0.20330000  1.0
  C  C2491  1  0.21320000  0.10610000  0.23150000  1.0
  C  C2492  1  0.27120000  0.15120000  0.23400000  1.0
  C  C2493  1  0.29590000  0.17480000  0.26410000  1.0
  C  C2494  1  0.35480000  0.22340000  0.28040000  1.0
  C  C2495  1  0.38190000  0.28920000  0.38170000  1.0
  C  C2496  1  0.32920000  0.25780000  0.38420000  1.0
  C  C2497  1  0.31990000  0.27300000  0.40430000  1.0
  C  C2498  1  0.26550000  0.22950000  0.39720000  1.0
  C  C2499  1  0.22970000  0.21990000  0.41100000  1.0
  C  C2500  1  0.04610000  0.06800000  0.33450000  1.0
  C  C2501  1  0.04828000  0.04858000  0.30926000  1.0
  C  C2502  1  0.01590000  0.01920000  0.27990000  1.0
  C  C2503  1  0.03730000  0.01200000  0.26590000  1.0
  C  C2504  1  0.01970000  0.98570000  0.23380000  1.0
  C  C2505  1  0.59080000  0.97530000  0.36250000  1.0
  C  C2506  1  0.62560000  0.03150000  0.36490000  1.0
  C  C2507  1  0.63450000  0.06330000  0.38500000  1.0
  C  C2508  1  0.66950000  0.11090000  0.37700000  1.0
  C  C2509  1  0.69470000  0.16110000  0.39040000  1.0
  C  C2510  1  0.74380000  0.24920000  0.32160000  1.0
  C  C2511  1  0.73150000  0.22240000  0.29110000  1.0
  C  C2512  1  0.72020000  0.22420000  0.26260000  1.0
  C  C2513  1  0.70811000  0.18880000  0.24231000  1.0
  C  C2514  1  0.69180000  0.17210000  0.20830000  1.0
  C  C2515  1  0.63540000  0.01410000  0.18050000  1.0
  C  C2516  1  0.62870000  0.99870000  0.20940000  1.0
  C  C2517  1  0.59760000  0.94810000  0.21310000  1.0
  C  C2518  1  0.60530000  0.95650000  0.24480000  1.0
  C  C2519  1  0.58310000  0.91840000  0.26310000  1.0
  C  C2520  1  0.51460000  0.42300000  0.77520000  1.0
  C  C2521  1  0.56199000  0.44450000  0.76989000  1.0
  C  C2522  1  0.56460000  0.42700000  0.74560000  1.0
  C  C2523  1  0.61870000  0.46300000  0.75350000  1.0
  C  C2524  1  0.64840000  0.46640000  0.73660000  1.0
  C  C2525  1  0.51730000  0.32340000  0.73030000  1.0
  C  C2526  1  0.50064000  0.33387000  0.71271000  1.0
  C  C2527  1  0.52020000  0.37880000  0.71860000  1.0
  C  C2528  1  0.48920000  0.36820000  0.69540000  1.0
  C  C2529  1  0.49040000  0.40110000  0.68970000  1.0
  C  C2530  1  0.75570000  0.65390000  0.95440000  1.0
  C  C2531  1  0.70620000  0.61150000  0.92730000  1.0
  C  C2532  1  0.65200000  0.57562000  0.92502000  1.0
  C  C2533  1  0.62516000  0.54623000  0.89459000  1.0
  C  C2534  1  0.56580000  0.50290000  0.87850000  1.0
  C  C2535  1  0.02940000  0.85350000  0.71270000  1.0
  C  C2536  1  0.04720000  0.87170000  0.68470000  1.0
  C  C2537  1  0.08690000  0.92380000  0.68130000  1.0
  C  C2538  1  0.08870000  0.91970000  0.65080000  1.0
  C  C2539  1  0.12260000  0.96080000  0.63420000  1.0
  C  C2540  1  0.09600000  0.88310000  0.53490000  1.0
  C  C2541  1  0.06210000  0.82840000  0.53530000  1.0
  C  C2542  1  0.05090000  0.79465000  0.51495000  1.0
  C  C2543  1  0.01860000  0.74980000  0.52620000  1.0
  C  C2544  1  0.99570000  0.70070000  0.51560000  1.0
  C  C2545  1  0.10250000  0.00720000  0.68150000  1.0
  C  C2546  1  0.13150000  0.01100000  0.70250000  1.0
  C  C2547  1  0.12330000  0.97460000  0.70370000  1.0
  C  C2548  1  0.16240000  0.00030000  0.72990000  1.0
  C  C2549  1  0.17520000  0.98250000  0.74310000  1.0
  C  C2550  1  0.65890000  0.78430000  0.10260000  1.0
  C  C2551  1  0.68810000  0.78680000  0.12470000  1.0
  C  C2552  1  0.68000000  0.74970000  0.12410000  1.0
  C  C2553  1  0.71830000  0.77360000  0.14970000  1.0
  C  C2554  1  0.72920000  0.75390000  0.16150000  1.0
  C  C2555  1  0.89080000  0.89310000  0.24290000  1.0
  C  C2556  1  0.91610000  0.94420000  0.24810000  1.0
  C  C2557  1  0.96990000  0.99810000  0.26340000  1.0
  C  C2558  1  0.97120000  0.02980000  0.26060000  1.0
  C  C2559  1  0.01650000  0.09070000  0.27300000  1.0
  C  C2560  1  0.62730000  0.92490000  0.16540000  1.0
  C  C2561  1  0.57381000  0.88734000  0.17015000  1.0
  C  C2562  1  0.56160000  0.89760000  0.19100000  1.0
  C  C2563  1  0.50410000  0.84780000  0.18510000  1.0
  C  C2564  1  0.46800000  0.83470000  0.20030000  1.0
  C  C2565  1  0.30300000  0.87140000  0.47360000  1.0
  C  C2566  1  0.33930000  0.90550000  0.45260000  1.0
  C  C2567  1  0.33280000  0.91580000  0.42800000  1.0
  C  C2568  1  0.37790000  0.94500000  0.41750000  1.0
  C  C2569  1  0.39170000  0.96660000  0.39030000  1.0
  C  C2570  1  0.55690000  0.05400000  0.38690000  1.0
  C  C2571  1  0.57120000  0.04310000  0.40790000  1.0
  C  C2572  1  0.60370000  0.04600000  0.40750000  1.0
  C  C2573  1  0.59960000  0.02840000  0.43280000  1.0
  C  C2574  1  0.62650000  0.02360000  0.44570000  1.0
  C  C2575  1  0.41130000  0.38980000  0.38870000  1.0
  C  C2576  1  0.39850000  0.37650000  0.41800000  1.0
  C  C2577  1  0.36100000  0.32670000  0.42590000  1.0
  C  C2578  1  0.36910000  0.34230000  0.45620000  1.0
  C  C2579  1  0.33925000  0.30560000  0.47765000  1.0
  C  C2580  1  0.93730000  0.95090000  0.59040000  1.0
  C  C2581  1  0.92310000  0.96260000  0.56890000  1.0
  C  C2582  1  0.88743000  0.95560000  0.56623000  1.0
  C  C2583  1  0.88990000  0.97139000  0.54209000  1.0
  C  C2584  1  0.86060000  0.97330000  0.52890000  1.0
  C  C2585  1  0.95290000  0.08350000  0.45500000  1.0
  C  C2586  1  0.99890000  0.10180000  0.45550000  1.0
  C  C2587  1  0.04340000  0.14290000  0.44290000  1.0
  C  C2588  1  0.07390000  0.14360000  0.44890000  1.0
  C  C2589  1  0.12740000  0.18080000  0.44240000  1.0
  C  C2590  1  0.21630000  0.18220000  0.51750000  1.0
  C  C2591  1  0.17680000  0.14180000  0.53440000  1.0
  C  C2592  1  0.18060000  0.12950000  0.55870000  1.0
  C  C2593  1  0.12890000  0.08640000  0.56390000  1.0
  C  C2594  1  0.11070000  0.05910000  0.58840000  1.0
  C  C2595  1  0.16360000  0.67300000  0.78940000  1.0
  C  C2596  1  0.13800000  0.62200000  0.78000000  1.0
  C  C2597  1  0.08140000  0.56860000  0.76560000  1.0
  C  C2598  1  0.07940000  0.53690000  0.76210000  1.0
  C  C2599  1  0.03080000  0.47560000  0.74820000  1.0
  C  C2600  1  0.07150000  0.41980000  0.78550000  1.0
  C  C2601  1  0.12570000  0.46460000  0.80810000  1.0
  C  C2602  1  0.14710000  0.46430000  0.83100000  1.0
  C  C2603  1  0.20150000  0.51960000  0.84270000  1.0
  C  C2604  1  0.24540000  0.54410000  0.86890000  1.0
  C  C2605  1  0.38010000  0.74040000  0.90510000  1.0
  C  C2606  1  0.36100000  0.74980000  0.88520000  1.0
  C  C2607  1  0.37290000  0.78860000  0.89090000  1.0
  C  C2608  1  0.34280000  0.77460000  0.86380000  1.0
  C  C2609  1  0.33920000  0.80370000  0.85470000  1.0
  C  C2610  1  0.11890000  0.43960000  0.89510000  1.0
  C  C2611  1  0.10470000  0.40600000  0.86790000  1.0
  C  C2612  1  0.11670000  0.41610000  0.84020000  1.0
  C  C2613  1  0.09100000  0.37030000  0.82310000  1.0
  C  C2614  1  0.08850000  0.35630000  0.79100000  1.0
  C  C2615  1  0.97470000  0.17470000  0.76120000  1.0
  C  C2616  1  0.95610000  0.15150000  0.78780000  1.0
  C  C2617  1  0.91900000  0.09880000  0.78820000  1.0
  C  C2618  1  0.91650000  0.09910000  0.81840000  1.0
  C  C2619  1  0.88340000  0.05440000  0.83340000  1.0
  C  C2620  1  0.90360000  0.12580000  0.93800000  1.0
  C  C2621  1  0.94550000  0.18490000  0.94200000  1.0
  C  C2622  1  0.96820000  0.22520000  0.96640000  1.0
  C  C2623  1  0.00140000  0.27027000  0.95507000  1.0
  C  C2624  1  0.03700000  0.32570000  0.97010000  1.0
  C  C2625  1  0.96000000  0.08420000  0.74340000  1.0
  C  C2626  1  0.90440000  0.04800000  0.74260000  1.0
  C  C2627  1  0.88720000  0.05330000  0.76250000  1.0
  C  C2628  1  0.83010000  0.00650000  0.74920000  1.0
  C  C2629  1  0.78910000  0.99040000  0.76110000  1.0
  C  C2630  1  0.61770000  0.84000000  0.68890000  1.0
  C  C2631  1  0.62040000  0.82480000  0.65980000  1.0
  C  C2632  1  0.58700000  0.79530000  0.63050000  1.0
  C  C2633  1  0.61110000  0.79500000  0.61410000  1.0
  C  C2634  1  0.59080000  0.76800000  0.58020000  1.0
  C  C2635  1  0.75600000  0.85640000  0.55800000  1.0
  C  C2636  1  0.80280000  0.89980000  0.58500000  1.0
  C  C2637  1  0.86010000  0.94240000  0.58990000  1.0
  C  C2638  1  0.88266000  0.96920000  0.62026000  1.0
  C  C2639  1  0.94120000  0.01830000  0.63870000  1.0
  C  C2640  1  0.46080000  0.66410000  0.59990000  1.0
  C  C2641  1  0.48170000  0.71320000  0.60710000  1.0
  C  C2642  1  0.53720000  0.77120000  0.62000000  1.0
  C  C2643  1  0.53180000  0.79590000  0.62110000  1.0
  C  C2644  1  0.57440000  0.85480000  0.63140000  1.0
  C  C2645  1  0.50020000  0.88190000  0.59270000  1.0
  C  C2646  1  0.44500000  0.82920000  0.57140000  1.0
  C  C2647  1  0.41560000  0.81990000  0.54690000  1.0
  C  C2648  1  0.36830000  0.76550000  0.53600000  1.0
  C  C2649  1  0.31870000  0.72970000  0.50980000  1.0
  C  C2650  1  0.21160000  0.54610000  0.47810000  1.0
  C  C2651  1  0.23902000  0.54828000  0.49970000  1.0
  C  C2652  1  0.23600000  0.51590000  0.49670000  1.0
  C  C2653  1  0.27140000  0.53730000  0.52530000  1.0
  C  C2654  1  0.28590000  0.51970000  0.53400000  1.0
  C  C2655  1  0.72830000  0.09080000  0.11550000  1.0
  C  C2656  1  0.76070000  0.12560000  0.09410000  1.0
  C  C2657  1  0.74950000  0.13450000  0.07120000  1.0
  C  C2658  1  0.79250000  0.16950000  0.05860000  1.0
  C  C2659  1  0.80430000  0.19470000  0.03360000  1.0
  C  C2660  1  0.92220000  0.24380000  0.99460000  1.0
  C  C2661  1  0.94040000  0.23150000  0.00910000  1.0
  C  C2662  1  0.95760000  0.22020000  0.99600000  1.0
  C  C2663  1  0.96580000  0.20811000  0.01931000  1.0
  C  C2664  1  0.98350000  0.19180000  0.01970000  1.0
  C  C2665  1  0.95490000  0.13540000  0.12130000  1.0
  C  C2666  1  0.91930000  0.12870000  0.13000000  1.0
  C  C2667  1  0.88450000  0.09760000  0.14950000  1.0
  C  C2668  1  0.86050000  0.10530000  0.14880000  1.0
  C  C2669  1  0.82000000  0.08310000  0.16470000  1.0
  C  C2670  1  0.23940000  0.01460000  0.59160000  1.0
  C  C2671  1  0.29210000  0.06199000  0.61749000  1.0
  C  C2672  1  0.31900000  0.06460000  0.63760000  1.0
  C  C2673  1  0.36520000  0.11870000  0.65570000  1.0
  C  C2674  1  0.41180000  0.14840000  0.68200000  1.0
  C  C2675  1  0.28700000  0.01730000  0.69390000  1.0
  C  C2676  1  0.28793000  0.00064000  0.66677000  1.0
  C  C2677  1  0.30160000  0.02020000  0.64140000  1.0
  C  C2678  1  0.29380000  0.98920000  0.62100000  1.0
  C  C2679  1  0.30070000  0.99040000  0.58930000  1.0
  C  C2680  1  0.30130000  0.25570000  0.60180000  1.0
  C  C2681  1  0.27890000  0.20620000  0.59470000  1.0
  C  C2682  1  0.22698000  0.15200000  0.57638000  1.0
  C  C2683  1  0.23057000  0.12516000  0.57893000  1.0
  C  C2684  1  0.18730000  0.06580000  0.56290000  1.0
  C  C2685  1  0.81670000  0.52940000  0.67590000  1.0
  C  C2686  1  0.86250000  0.54720000  0.67550000  1.0
  C  C2687  1  0.90560000  0.58690000  0.66310000  1.0
  C  C2688  1  0.93790000  0.58870000  0.66900000  1.0
  C  C2689  1  0.98840000  0.62260000  0.66180000  1.0
  C  C2690  1  0.06110000  0.59600000  0.71290000  1.0
  C  C2691  1  0.02680000  0.56210000  0.73370000  1.0
  C  C2692  1  0.03595000  0.55090000  0.75625000  1.0
  C  C2693  1  0.99240000  0.51860000  0.76880000  1.0
  C  C2694  1  0.98010000  0.49570000  0.79500000  1.0
  C  C2695  1  0.92100000  0.60250000  0.59530000  1.0
  C  C2696  1  0.92900000  0.63150000  0.62050000  1.0
  C  C2697  1  0.91960000  0.62330000  0.64870000  1.0
  C  C2698  1  0.93250000  0.66240000  0.66210000  1.0
  C  C2699  1  0.93210000  0.67520000  0.69270000  1.0
  C  C2700  1  0.05630000  0.15890000  0.37460000  1.0
  C  C2701  1  0.06340000  0.18810000  0.40130000  1.0
  C  C2702  1  0.05590000  0.18000000  0.43030000  1.0
  C  C2703  1  0.06860000  0.21830000  0.44470000  1.0
  C  C2704  1  0.06770000  0.22920000  0.47530000  1.0
  C  C2705  1  0.14790000  0.39080000  0.49770000  1.0
  C  C2706  1  0.16800000  0.41610000  0.47190000  1.0
  C  C2707  1  0.20650000  0.46990000  0.47180000  1.0
  C  C2708  1  0.21060000  0.47120000  0.44140000  1.0
  C  C2709  1  0.24350000  0.51650000  0.42580000  1.0
  C  C2710  1  0.96190000  0.12730000  0.20240000  1.0
  C  C2711  1  0.90366000  0.07381000  0.18647000  1.0
  C  C2712  1  0.87060000  0.06160000  0.16400000  1.0
  C  C2713  1  0.81900000  0.00410000  0.15630000  1.0
  C  C2714  1  0.76770000  0.96800000  0.13330000  1.0
  C  C2715  1  0.32940000  0.80300000  0.93160000  1.0
  C  C2716  1  0.38670000  0.83930000  0.93380000  1.0
  C  C2717  1  0.40480000  0.83280000  0.91700000  1.0
  C  C2718  1  0.46040000  0.87790000  0.93290000  1.0
  C  C2719  1  0.50140000  0.89170000  0.92510000  1.0
  C  C2720  1  0.67000000  0.05690000  0.00290000  1.0
  C  C2721  1  0.66330000  0.07120000  0.02810000  1.0
  C  C2722  1  0.69620000  0.10370000  0.05770000  1.0
  C  C2723  1  0.66680000  0.09960000  0.07120000  1.0
  C  C2724  1  0.68080000  0.12650000  0.10290000  1.0
  C  C2725  1  0.52260000  0.91130000  0.52150000  1.0
  C  C2726  1  0.48050000  0.89850000  0.52200000  1.0
  C  C2727  1  0.43510000  0.86100000  0.53430000  1.0
  C  C2728  1  0.41290000  0.86910000  0.52680000  1.0
  C  C2729  1  0.36160000  0.83925000  0.53365000  1.0
  C  C2730  1  0.86050000  0.34690000  0.90960000  1.0
  C  C2731  1  0.89370000  0.35420000  0.93110000  1.0
  C  C2732  1  0.88937000  0.32120000  0.93377000  1.0
  C  C2733  1  0.92930000  0.34781000  0.95791000  1.0
  C  C2734  1  0.94440000  0.33170000  0.97110000  1.0
  C  C2735  1  0.12850000  0.49790000  0.04500000  1.0
  C  C2736  1  0.14630000  0.54340000  0.04450000  1.0
  C  C2737  1  0.20000000  0.60050000  0.05710000  1.0
  C  C2738  1  0.19470000  0.62500000  0.05110000  1.0
  C  C2739  1  0.23840000  0.68500000  0.05760000  1.0
  C  C2740  1  0.16470000  0.69880000  0.98250000  1.0
  C  C2741  1  0.10740000  0.64240000  0.96560000  1.0
  C  C2742  1  0.07080000  0.62190000  0.94130000  1.0
  C  C2743  1  0.02250000  0.56500000  0.93610000  1.0
  C  C2744  1  0.97070000  0.52230000  0.91160000  1.0
  C  C2745  1  0.38360000  0.37420000  0.71060000  1.0
  C  C2746  1  0.34200000  0.35800000  0.72000000  1.0
  C  C2747  1  0.30300000  0.31580000  0.73440000  1.0
  C  C2748  1  0.27480000  0.31730000  0.73790000  1.0
  C  C2749  1  0.22740000  0.28260000  0.75180000  1.0
  C  C2750  1  0.13430000  0.28600000  0.71450000  1.0
  C  C2751  1  0.15650000  0.31760000  0.69190000  1.0
  C  C2752  1  0.13330000  0.31610000  0.66900000  1.0
  C  C2753  1  0.17690000  0.35880000  0.65730000  1.0
  C  C2754  1  0.17520000  0.37650000  0.63110000  1.0
  C  C2755  1  0.33530000  0.47500000  0.59490000  1.0
  C  C2756  1  0.36460000  0.47580000  0.61480000  1.0
  C  C2757  1  0.39770000  0.48200000  0.60910000  1.0
  C  C2758  1  0.41080000  0.47900000  0.63620000  1.0
  C  C2759  1  0.44900000  0.48450000  0.64530000  1.0
  C  C2760  1  0.04450000  0.22380000  0.60490000  1.0
  C  C2761  1  0.03810000  0.23680000  0.63210000  1.0
  C  C2762  1  0.07590000  0.27650000  0.65980000  1.0
  C  C2763  1  0.04720000  0.26790000  0.67690000  1.0
  C  C2764  1  0.06530000  0.29750000  0.70900000  1.0
  C  C2765  1  0.91350000  0.21350000  0.73880000  1.0
  C  C2766  1  0.86370000  0.16830000  0.71220000  1.0
  C  C2767  1  0.81060000  0.13080000  0.71180000  1.0
  C  C2768  1  0.78070000  0.09810000  0.68160000  1.0
  C  C2769  1  0.72100000  0.05000000  0.66666667  1.0
  C  C2770  1  0.68780000  0.96560000  0.56200000  1.0
  C  C2771  1  0.74290000  0.00350000  0.55800000  1.0
  C  C2772  1  0.75880000  0.00180000  0.53360000  1.0
  C  C2773  1  0.81520000  0.04633000  0.54493000  1.0
  C  C2774  1  0.85560000  0.06690000  0.52990000  1.0
  C  C2775  1  0.84080000  0.21660000  0.75660000  1.0
  C  C2776  1  0.80540000  0.16180000  0.75740000  1.0
  C  C2777  1  0.79080000  0.12470000  0.73750000  1.0
  C  C2778  1  0.75730000  0.08090000  0.75080000  1.0
  C  C2779  1  0.72930000  0.02800000  0.73890000  1.0
  C  C2780  1  0.65110000  0.92880000  0.81110000  1.0
  C  C2781  1  0.66500000  0.96060000  0.84020000  1.0
  C  C2782  1  0.66480000  0.95650000  0.86950000  1.0
  C  C2783  1  0.68090000  0.99700000  0.88590000  1.0
  C  C2784  1  0.68780000  0.01060000  0.91980000  1.0
  C  C2785  1  0.79840000  0.19800000  0.94200000  1.0
  C  C2786  1  0.81480000  0.21780000  0.91500000  1.0
  C  C2787  1  0.85250000  0.27020000  0.91010000  1.0
  C  C2788  1  0.84894000  0.26240000  0.87974000  1.0
  C  C2789  1  0.87960000  0.30250000  0.86130000  1.0
  C  C2790  1  0.56420000  0.86090000  0.90010000  1.0
  C  C2791  1  0.60610000  0.87460000  0.89290000  1.0
  C  C2792  1  0.65120000  0.91720000  0.88000000  1.0
  C  C2793  1  0.67480000  0.91070000  0.87890000  1.0
  C  C2794  1  0.72340000  0.94300000  0.86860000  1.0
  C  C2795  1  0.78920000  0.90750000  0.90730000  1.0
  C  C2796  1  0.75780000  0.87360000  0.92860000  1.0
  C  C2797  1  0.77300000  0.86870000  0.95310000  1.0
  C  C2798  1  0.72950000  0.83230000  0.96400000  1.0
  C  C2799  1  0.71990000  0.80890000  0.99020000  1.0
  C  C2800  1  0.56800000  0.73350000  0.02190000  1.0
  C  C2801  1  0.54858000  0.73932000  0.00030000  1.0
  C  C2802  1  0.51920000  0.73930000  0.00330000  1.0
  C  C2803  1  0.51200000  0.74610000  0.97470000  1.0
  C  C2804  1  0.48570000  0.75190000  0.96600000  1.0
  C  C2805  1  0.47530000  0.61280000  0.38450000  1.0
  C  C2806  1  0.53150000  0.66666667  0.40590000  1.0
  C  C2807  1  0.56330000  0.67830000  0.42880000  1.0
  C  C2808  1  0.61090000  0.73390000  0.44140000  1.0
  C  C2809  1  0.66110000  0.77070000  0.46640000  1.0
  C  C2810  1  0.74920000  0.92760000  0.50540000  1.0
  C  C2811  1  0.72240000  0.93130000  0.49090000  1.0
  C  C2812  1  0.72420000  0.96160000  0.50400000  1.0
  C  C2813  1  0.68880000  0.94649000  0.48069000  1.0
  C  C2814  1  0.67210000  0.96380000  0.48030000  1.0
  C  C2815  1  0.51410000  0.83360000  0.37870000  1.0
  C  C2816  1  0.49870000  0.78930000  0.37000000  1.0
  C  C2817  1  0.44810000  0.73500000  0.35050000  1.0
  C  C2818  1  0.45650000  0.71170000  0.35120000  1.0
  C  C2819  1  0.41840000  0.65530000  0.33530000  1.0
  C  C2820  1  0.92300000  0.64780000  0.90840000  1.0
  C  C2821  1  0.94450000  0.67461000  0.88251000  1.0
  C  C2822  1  0.92700000  0.68140000  0.86240000  1.0
  C  C2823  1  0.96300000  0.70950000  0.84430000  1.0
  C  C2824  1  0.96640000  0.72980000  0.81800000  1.0
  C  C2825  1  0.82340000  0.59310000  0.80610000  1.0
  C  C2826  1  0.83387000  0.62116000  0.83323000  1.0
  C  C2827  1  0.87880000  0.66020000  0.85860000  1.0
  C  C2828  1  0.86820000  0.67280000  0.87900000  1.0
  C  C2829  1  0.90110000  0.71140000  0.91070000  1.0
  C  C2830  1  0.15390000  0.69950000  0.89820000  1.0
  C  C2831  1  0.11150000  0.68420000  0.90530000  1.0
  C  C2832  1  0.07562000  0.65060000  0.92362000  1.0
  C  C2833  1  0.04623000  0.65164000  0.92107000  1.0
  C  C2834  1  0.00290000  0.62440000  0.93710000  1.0
  C  C2835  1  0.35350000  0.14080000  0.82410000  1.0
  C  C2836  1  0.37170000  0.18700000  0.82450000  1.0
  C  C2837  1  0.42380000  0.24250000  0.83690000  1.0
  C  C2838  1  0.41970000  0.26890000  0.83100000  1.0
  C  C2839  1  0.46080000  0.32660000  0.83820000  1.0
  C  C2840  1  0.38310000  0.34820000  0.78710000  1.0
  C  C2841  1  0.32840000  0.29310000  0.76630000  1.0
  C  C2842  1  0.29465000  0.27970000  0.74375000  1.0
  C  C2843  1  0.24980000  0.22360000  0.73120000  1.0
  C  C2844  1  0.20070000  0.18510000  0.70500000  1.0
  C  C2845  1  0.50720000  0.32570000  0.90470000  1.0
  C  C2846  1  0.51100000  0.30850000  0.87950000  1.0
  C  C2847  1  0.47460000  0.27090000  0.85130000  1.0
  C  C2848  1  0.50030000  0.27040000  0.83790000  1.0
  C  C2849  1  0.48250000  0.23940000  0.80730000  1.0
  C  C2850  1  0.28430000  0.68170000  0.12540000  1.0
  C  C2851  1  0.28680000  0.66210000  0.09870000  1.0
  C  C2852  1  0.24970000  0.62560000  0.06970000  1.0
  C  C2853  1  0.27360000  0.62390000  0.05530000  1.0
  C  C2854  1  0.25390000  0.59240000  0.02470000  1.0
  C  C2855  1  0.39310000  0.65020000  0.00230000  1.0
  C  C2856  1  0.44420000  0.69610000  0.02810000  1.0
  C  C2857  1  0.49810000  0.73470000  0.02820000  1.0
  C  C2858  1  0.52980000  0.76920000  0.05860000  1.0
  C  C2859  1  0.59070000  0.81770000  0.07420000  1.0
  C  C2860  1  0.42490000  0.75950000  0.29760000  1.0
  C  C2861  1  0.38734000  0.71719000  0.31353000  1.0
  C  C2862  1  0.39760000  0.70660000  0.33600000  1.0
  C  C2863  1  0.34780000  0.66270000  0.34370000  1.0
  C  C2864  1  0.33470000  0.63440000  0.36670000  1.0
  C  C2865  1  0.37140000  0.39780000  0.56840000  1.0
  C  C2866  1  0.40550000  0.45290000  0.56620000  1.0
  C  C2867  1  0.41580000  0.48780000  0.58300000  1.0
  C  C2868  1  0.44500000  0.52750000  0.56710000  1.0
  C  C2869  1  0.46660000  0.57630000  0.57490000  1.0
  C  C2870  1  0.55400000  0.66710000  0.49710000  1.0
  C  C2871  1  0.54310000  0.63520000  0.47190000  1.0
  C  C2872  1  0.54600000  0.63850000  0.44230000  1.0
  C  C2873  1  0.52840000  0.59560000  0.42880000  1.0
  C  C2874  1  0.52360000  0.57790000  0.39710000  1.0
  C  C2875  1  0.88980000  0.00110000  0.97850000  1.0
  C  C2876  1  0.87650000  0.95850000  0.97800000  1.0
  C  C2877  1  0.82670000  0.90080000  0.96570000  1.0
  C  C2878  1  0.84230000  0.88610000  0.97320000  1.0
  C  C2879  1  0.80560000  0.82795000  0.96635000  1.0
  N  N2880  1  0.09877000  0.55374000  0.53451000  1.0
  N  N2881  1  0.10324000  0.57498000  0.56142000  1.0
  N  N2882  1  0.96377000  0.49673000  0.57570000  1.0
  N  N2883  1  0.91361000  0.44979000  0.55580000  1.0
  N  N2884  1  0.89966000  0.37486000  0.48412000  1.0
  N  N2885  1  0.94809000  0.40546000  0.47915000  1.0
  N  N2886  1  0.11860000  0.33457000  0.95457000  1.0
  N  N2887  1  0.14370000  0.37050000  0.93800000  1.0
  N  N2888  1  0.14218000  0.33560000  0.85198000  1.0
  N  N2889  1  0.11580000  0.28750000  0.83870000  1.0
  N  N2890  1  0.03062000  0.17317000  0.88779000  1.0
  N  N2891  1  0.02810000  0.18400000  0.91630000  1.0
  N  N2892  1  0.29484000  0.42696000  0.78320000  1.0
  N  N2893  1  0.27430000  0.43470000  0.76880000  1.0
  N  N2894  1  0.34254000  0.52781000  0.70855000  1.0
  N  N2895  1  0.38642000  0.55265000  0.70047000  1.0
  N  N2896  1  0.45492000  0.53636000  0.74208000  1.0
  N  N2897  1  0.42818000  0.50270000  0.76048000  1.0
  N  N2898  1  0.35921000  0.63970000  0.64051000  1.0
  N  N2899  1  0.40916000  0.68570000  0.66126000  1.0
  N  N2900  1  0.49688000  0.83636000  0.67904000  1.0
  N  N2901  1  0.47458000  0.84228000  0.66746000  1.0
  N  N2902  1  0.31810000  0.70586000  0.60916000  1.0
  N  N2903  1  0.29040000  0.65730000  0.60270000  1.0
  N  N2904  1  0.65287000  0.05284000  0.76011000  1.0
  N  N2905  1  0.63081000  0.02083000  0.78004000  1.0
  N  N2906  1  0.65978000  0.08519000  0.86717000  1.0
  N  N2907  1  0.68515000  0.13322000  0.87437000  1.0
  N  N2908  1  0.75295000  0.22636000  0.81231000  1.0
  N  N2909  1  0.74870000  0.20662000  0.78632000  1.0
  N  N2910  1  0.78605000  0.69017000  0.84482000  1.0
  N  N2911  1  0.74292000  0.66962000  0.85274000  1.0
  N  N2912  1  0.60021000  0.56336000  0.78837000  1.0
  N  N2913  1  0.59074000  0.54612000  0.75826000  1.0
  N  N2914  1  0.70373000  0.58459000  0.73692000  1.0
  N  N2915  1  0.75150000  0.62003000  0.75813000  1.0
  N  N2916  1  0.80511000  0.18111000  0.29162000  1.0
  N  N2917  1  0.78316000  0.13479000  0.28175000  1.0
  N  N2918  1  0.88743000  0.22588000  0.18631000  1.0
  N  N2919  1  0.85581000  0.22342000  0.17583000  1.0
  N  N2920  1  0.79931000  0.19169000  0.40020000  1.0
  N  N2921  1  0.81909000  0.22163000  0.37992000  1.0
  N  N2922  1  0.32106000  0.63156000  0.15882000  1.0
  N  N2923  1  0.27000000  0.58543000  0.13783000  1.0
  N  N2924  1  0.25190000  0.52067000  0.05677000  1.0
  N  N2925  1  0.29640000  0.54260000  0.05100000  1.0
  N  N2926  1  0.17090000  0.55480000  0.22710000  1.0
  N  N2927  1  0.19580000  0.55260000  0.24420000  1.0
  N  N2928  1  0.81926000  0.42147000  0.65013000  1.0
  N  N2929  1  0.84632000  0.42087000  0.66599000  1.0
  N  N2930  1  0.79080000  0.34624000  0.73504000  1.0
  N  N2931  1  0.74751000  0.32250000  0.74341000  1.0
  N  N2932  1  0.81800000  0.62513000  0.65273000  1.0
  N  N2933  1  0.85100000  0.67793000  0.66173000  1.0
  N  N2934  1  0.03040000  0.07190000  0.95870000  1.0
  N  N2935  1  0.98200000  0.02570000  0.93610000  1.0
  N  N2936  1  0.90660000  0.88230000  0.93130000  1.0
  N  N2937  1  0.93340000  0.88240000  0.94740000  1.0
  N  N2938  1  0.52450000  0.01550000  0.94240000  1.0
  N  N2939  1  0.57250000  0.06100000  0.96690000  1.0
  N  N2940  1  0.51923000  0.56426000  0.96549000  1.0
  N  N2941  1  0.51356000  0.54182000  0.93858000  1.0
  N  N2942  1  0.42103000  0.38807000  0.92430000  1.0
  N  N2943  1  0.39399000  0.35781000  0.94420000  1.0
  N  N2944  1  0.39074000  0.41554000  0.01588000  1.0
  N  N2945  1  0.42631000  0.46894000  0.02085000  1.0
  N  N2946  1  0.88000000  0.16403000  0.54543000  1.0
  N  N2947  1  0.93250000  0.20570000  0.56200000  1.0
  N  N2948  1  0.98362000  0.29020000  0.64802000  1.0
  N  N2949  1  0.94880000  0.27710000  0.66130000  1.0
  N  N2950  1  0.78538000  0.14283000  0.61221000  1.0
  N  N2951  1  0.76770000  0.11180000  0.58370000  1.0
  N  N2952  1  0.14376000  0.51164000  0.71680000  1.0
  N  N2953  1  0.16590000  0.50550000  0.73120000  1.0
  N  N2954  1  0.31926000  0.63399000  0.79145000  1.0
  N  N2955  1  0.35218000  0.68595000  0.79953000  1.0
  N  N2956  1  0.29428000  0.71284000  0.75792000  1.0
  N  N2957  1  0.24222000  0.66770000  0.73952000  1.0
  N  N2958  1  0.49919000  0.71870000  0.85949000  1.0
  N  N2959  1  0.52444000  0.74790000  0.83874000  1.0
  N  N2960  1  0.65732000  0.81784000  0.82096000  1.0
  N  N2961  1  0.67482000  0.80712000  0.83254000  1.0
  N  N2962  1  0.59670000  0.70894000  0.89084000  1.0
  N  N2963  1  0.55460000  0.68770000  0.89730000  1.0
  N  N2964  1  0.79273000  0.89276000  0.73989000  1.0
  N  N2965  1  0.74079000  0.85077000  0.71996000  1.0
  N  N2966  1  0.71802000  0.79261000  0.63283000  1.0
  N  N2967  1  0.75885000  0.81078000  0.62563000  1.0
  N  N2968  1  0.91405000  0.94064000  0.68769000  1.0
  N  N2969  1  0.92030000  0.96238000  0.71368000  1.0
  N  N2970  1  0.34535000  0.94123000  0.65518000  1.0
  N  N2971  1  0.31688000  0.89018000  0.64726000  1.0
  N  N2972  1  0.27499000  0.81184000  0.71163000  1.0
  N  N2973  1  0.28786000  0.83248000  0.74174000  1.0
  N  N2974  1  0.34767000  0.96681000  0.76308000  1.0
  N  N2975  1  0.36190000  0.99337000  0.74187000  1.0
  N  N2976  1  0.38949000  0.51349000  0.20838000  1.0
  N  N2977  1  0.35304000  0.50141000  0.21825000  1.0
  N  N2978  1  0.53957000  0.70112000  0.31369000  1.0
  N  N2979  1  0.54759000  0.67998000  0.32417000  1.0
  N  N2980  1  0.29149000  0.39911000  0.09980000  1.0
  N  N2981  1  0.34171000  0.43917000  0.12008000  1.0
  N  N2982  1  0.97274000  0.16224000  0.34118000  1.0
  N  N2983  1  0.94760000  0.13217000  0.36217000  1.0
  N  N2984  1  0.96390000  0.19513000  0.44323000  1.0
  N  N2985  1  0.99160000  0.24540000  0.44900000  1.0
  N  N2986  1  0.82770000  0.94380000  0.27290000  1.0
  N  N2987  1  0.80840000  0.95160000  0.25580000  1.0
  N  N2988  1  0.27134000  0.16913000  0.84987000  1.0
  N  N2989  1  0.25488000  0.18033000  0.83401000  1.0
  N  N2990  1  0.11120000  0.05576000  0.76496000  1.0
  N  N2991  1  0.07909000  0.00410000  0.75659000  1.0
  N  N2992  1  0.47240000  0.16527000  0.84727000  1.0
  N  N2993  1  0.51620000  0.18927000  0.83827000  1.0
  N  N2994  1  0.61320000  0.07170000  0.54130000  1.0
  N  N2995  1  0.58960000  0.04590000  0.56390000  1.0
  N  N2996  1  0.45100000  0.97530000  0.56870000  1.0
  N  N2997  1  0.43500000  0.98600000  0.55260000  1.0
  N  N2998  1  0.57310000  0.58210000  0.55760000  1.0
  N  N2999  1  0.59410000  0.60560000  0.53310000  1.0
  N  N3000  1  0.05374000  0.01923000  0.45497000  1.0
  N  N3001  1  0.07498000  0.01356000  0.47174000  1.0
  N  N3002  1  0.99673000  0.92103000  0.53296000  1.0
  N  N3003  1  0.94979000  0.89399000  0.53618000  1.0
  N  N3004  1  0.87486000  0.89074000  0.47520000  1.0
  N  N3005  1  0.90546000  0.92631000  0.45737000  1.0
  N  N3006  1  0.83457000  0.38000000  0.21597000  1.0
  N  N3007  1  0.87050000  0.43250000  0.22680000  1.0
  N  N3008  1  0.83560000  0.48362000  0.19342000  1.0
  N  N3009  1  0.78750000  0.44880000  0.17170000  1.0
  N  N3010  1  0.67317000  0.28538000  0.14255000  1.0
  N  N3011  1  0.68400000  0.26770000  0.15590000  1.0
  N  N3012  1  0.92696000  0.64376000  0.13212000  1.0
  N  N3013  1  0.93470000  0.66590000  0.16040000  1.0
  N  N3014  1  0.02781000  0.81926000  0.18527000  1.0
  N  N3015  1  0.05265000  0.85218000  0.16623000  1.0
  N  N3016  1  0.03636000  0.79428000  0.08144000  1.0
  N  N3017  1  0.00270000  0.74222000  0.07452000  1.0
  N  N3018  1  0.13970000  0.99919000  0.28049000  1.0
  N  N3019  1  0.18570000  0.02444000  0.27654000  1.0
  N  N3020  1  0.33636000  0.15732000  0.33948000  1.0
  N  N3021  1  0.34228000  0.17482000  0.36770000  1.0
  N  N3022  1  0.20586000  0.09670000  0.38776000  1.0
  N  N3023  1  0.15730000  0.05460000  0.36690000  1.0
  N  N3024  1  0.55284000  0.29273000  0.39997000  1.0
  N  N3025  1  0.52083000  0.24079000  0.39002000  1.0
  N  N3026  1  0.58519000  0.21802000  0.42541000  1.0
  N  N3027  1  0.63322000  0.25885000  0.44807000  1.0
  N  N3028  1  0.72636000  0.41405000  0.47341000  1.0
  N  N3029  1  0.70662000  0.42030000  0.45792000  1.0
  N  N3030  1  0.19017000  0.84535000  0.90412000  1.0
  N  N3031  1  0.16962000  0.81688000  0.92670000  1.0
  N  N3032  1  0.06336000  0.77499000  0.96315000  1.0
  N  N3033  1  0.04612000  0.78786000  0.95538000  1.0
  N  N3034  1  0.08459000  0.84767000  0.88086000  1.0
  N  N3035  1  0.12003000  0.86190000  0.86853000  1.0
  N  N3036  1  0.68111000  0.88949000  0.37600000  1.0
  N  N3037  1  0.63479000  0.85304000  0.35163000  1.0
  N  N3038  1  0.72588000  0.03957000  0.33845000  1.0
  N  N3039  1  0.72342000  0.04759000  0.36761000  1.0
  N  N3040  1  0.69169000  0.79149000  0.39238000  1.0
  N  N3041  1  0.72163000  0.84171000  0.40254000  1.0
  N  N3042  1  0.13156000  0.47274000  0.31050000  1.0
  N  N3043  1  0.08543000  0.44760000  0.31543000  1.0
  N  N3044  1  0.02067000  0.46390000  0.26877000  1.0
  N  N3045  1  0.04260000  0.49160000  0.24620000  1.0
  N  N3046  1  0.05480000  0.32770000  0.38390000  1.0
  N  N3047  1  0.05260000  0.30840000  0.35680000  1.0
  N  N3048  1  0.92147000  0.77134000  0.60221000  1.0
  N  N3049  1  0.92087000  0.75488000  0.57455000  1.0
  N  N3050  1  0.84624000  0.61120000  0.55544000  1.0
  N  N3051  1  0.82250000  0.57909000  0.57499000  1.0
  N  N3052  1  0.12513000  0.97240000  0.80713000  1.0
  N  N3053  1  0.17793000  0.01620000  0.82693000  1.0
  N  N3054  1  0.57190000  0.11320000  0.04150000  1.0
  N  N3055  1  0.52570000  0.08960000  0.04370000  1.0
  N  N3056  1  0.38230000  0.95100000  0.97570000  1.0
  N  N3057  1  0.38240000  0.93500000  0.94900000  1.0
  N  N3058  1  0.51550000  0.07310000  0.49100000  1.0
  N  N3059  1  0.56100000  0.09410000  0.48850000  1.0
  N  N3060  1  0.06426000  0.59877000  0.04503000  1.0
  N  N3061  1  0.04182000  0.60324000  0.02826000  1.0
  N  N3062  1  0.88807000  0.46377000  0.96704000  1.0
  N  N3063  1  0.85781000  0.41361000  0.96382000  1.0
  N  N3064  1  0.91554000  0.39966000  0.02480000  1.0
  N  N3065  1  0.96894000  0.44809000  0.04263000  1.0
  N  N3066  1  0.66403000  0.61860000  0.28403000  1.0
  N  N3067  1  0.70570000  0.64370000  0.27320000  1.0
  N  N3068  1  0.79020000  0.64218000  0.30658000  1.0
  N  N3069  1  0.77710000  0.61580000  0.32830000  1.0
  N  N3070  1  0.64283000  0.53062000  0.35745000  1.0
  N  N3071  1  0.61180000  0.52810000  0.34410000  1.0
  N  N3072  1  0.01164000  0.79484000  0.36788000  1.0
  N  N3073  1  0.00550000  0.77430000  0.33960000  1.0
  N  N3074  1  0.13399000  0.84254000  0.31473000  1.0
  N  N3075  1  0.18595000  0.88642000  0.33377000  1.0
  N  N3076  1  0.21284000  0.95492000  0.41856000  1.0
  N  N3077  1  0.16770000  0.92818000  0.42548000  1.0
  N  N3078  1  0.21870000  0.85921000  0.21951000  1.0
  N  N3079  1  0.24790000  0.90916000  0.22346000  1.0
  N  N3080  1  0.31784000  0.99688000  0.16052000  1.0
  N  N3081  1  0.30712000  0.97458000  0.13230000  1.0
  N  N3082  1  0.20894000  0.81810000  0.11224000  1.0
  N  N3083  1  0.18770000  0.79040000  0.13310000  1.0
  N  N3084  1  0.39276000  0.15287000  0.10003000  1.0
  N  N3085  1  0.35077000  0.13081000  0.10998000  1.0
  N  N3086  1  0.29261000  0.15978000  0.07459000  1.0
  N  N3087  1  0.31078000  0.18515000  0.05193000  1.0
  N  N3088  1  0.44064000  0.25295000  0.02659000  1.0
  N  N3089  1  0.46238000  0.24870000  0.04208000  1.0
  N  N3090  1  0.44123000  0.28605000  0.59588000  1.0
  N  N3091  1  0.39018000  0.24292000  0.57330000  1.0
  N  N3092  1  0.31184000  0.10021000  0.53685000  1.0
  N  N3093  1  0.33248000  0.09074000  0.54462000  1.0
  N  N3094  1  0.46681000  0.20373000  0.61914000  1.0
  N  N3095  1  0.49337000  0.25150000  0.63147000  1.0
  N  N3096  1  0.01349000  0.30511000  0.12400000  1.0
  N  N3097  1  0.00141000  0.28316000  0.14837000  1.0
  N  N3098  1  0.20112000  0.38743000  0.16155000  1.0
  N  N3099  1  0.17998000  0.35581000  0.13239000  1.0
  N  N3100  1  0.89911000  0.29931000  0.10762000  1.0
  N  N3101  1  0.93917000  0.31909000  0.09746000  1.0
  N  N3102  1  0.66224000  0.82106000  0.18950000  1.0
  N  N3103  1  0.63217000  0.77000000  0.18457000  1.0
  N  N3104  1  0.69513000  0.75190000  0.23123000  1.0
  N  N3105  1  0.74540000  0.79640000  0.25380000  1.0
  N  N3106  1  0.44380000  0.67090000  0.11610000  1.0
  N  N3107  1  0.45160000  0.69580000  0.14320000  1.0
  N  N3108  1  0.66913000  0.31926000  0.89779000  1.0
  N  N3109  1  0.68033000  0.34632000  0.92545000  1.0
  N  N3110  1  0.55576000  0.29080000  0.94456000  1.0
  N  N3111  1  0.50410000  0.24751000  0.92501000  1.0
  N  N3112  1  0.66527000  0.31800000  0.69287000  1.0
  N  N3113  1  0.68927000  0.35100000  0.67307000  1.0
  N  N3114  1  0.57170000  0.53040000  0.45850000  1.0
  N  N3115  1  0.54590000  0.48200000  0.45630000  1.0
  N  N3116  1  0.47530000  0.40660000  0.52430000  1.0
  N  N3117  1  0.48600000  0.43340000  0.55100000  1.0
  N  N3118  1  0.08210000  0.02450000  0.00900000  1.0
  N  N3119  1  0.10560000  0.07250000  0.01150000  1.0
  N  N3120  1  0.90123000  0.44626000  0.46549000  1.0
  N  N3121  1  0.89676000  0.42502000  0.43858000  1.0
  N  N3122  1  0.03623000  0.50327000  0.42430000  1.0
  N  N3123  1  0.08639000  0.55021000  0.44420000  1.0
  N  N3124  1  0.10034000  0.62514000  0.51588000  1.0
  N  N3125  1  0.05191000  0.59454000  0.52085000  1.0
  N  N3126  1  0.88140000  0.66543000  0.04543000  1.0
  N  N3127  1  0.85630000  0.62950000  0.06200000  1.0
  N  N3128  1  0.85782000  0.66440000  0.14802000  1.0
  N  N3129  1  0.88420000  0.71250000  0.16130000  1.0
  N  N3130  1  0.96938000  0.82683000  0.11221000  1.0
  N  N3131  1  0.97190000  0.81600000  0.08370000  1.0
  N  N3132  1  0.70516000  0.57304000  0.21680000  1.0
  N  N3133  1  0.72570000  0.56530000  0.23120000  1.0
  N  N3134  1  0.65746000  0.47219000  0.29145000  1.0
  N  N3135  1  0.61358000  0.44735000  0.29953000  1.0
  N  N3136  1  0.54508000  0.46364000  0.25792000  1.0
  N  N3137  1  0.57182000  0.49730000  0.23952000  1.0
  N  N3138  1  0.64079000  0.36030000  0.35949000  1.0
  N  N3139  1  0.59084000  0.31430000  0.33874000  1.0
  N  N3140  1  0.50312000  0.16364000  0.32096000  1.0
  N  N3141  1  0.52542000  0.15772000  0.33254000  1.0
  N  N3142  1  0.68190000  0.29414000  0.39084000  1.0
  N  N3143  1  0.70960000  0.34270000  0.39730000  1.0
  N  N3144  1  0.34713000  0.94716000  0.23989000  1.0
  N  N3145  1  0.36919000  0.97917000  0.21996000  1.0
  N  N3146  1  0.34022000  0.91481000  0.13283000  1.0
  N  N3147  1  0.31485000  0.86678000  0.12563000  1.0
  N  N3148  1  0.24705000  0.77364000  0.18769000  1.0
  N  N3149  1  0.25130000  0.79338000  0.21368000  1.0
  N  N3150  1  0.21395000  0.30983000  0.15518000  1.0
  N  N3151  1  0.25708000  0.33038000  0.14726000  1.0
  N  N3152  1  0.39979000  0.43664000  0.21163000  1.0
  N  N3153  1  0.40926000  0.45388000  0.24174000  1.0
  N  N3154  1  0.29627000  0.41541000  0.26308000  1.0
  N  N3155  1  0.24850000  0.37997000  0.24187000  1.0
  N  N3156  1  0.19489000  0.81889000  0.70838000  1.0
  N  N3157  1  0.21684000  0.86521000  0.71825000  1.0
  N  N3158  1  0.11257000  0.77412000  0.81369000  1.0
  N  N3159  1  0.14419000  0.77658000  0.82417000  1.0
  N  N3160  1  0.20069000  0.80831000  0.59980000  1.0
  N  N3161  1  0.18091000  0.77837000  0.62008000  1.0
  N  N3162  1  0.67894000  0.36844000  0.84118000  1.0
  N  N3163  1  0.73000000  0.41457000  0.86217000  1.0
  N  N3164  1  0.74810000  0.47933000  0.94323000  1.0
  N  N3165  1  0.70360000  0.45740000  0.94900000  1.0
  N  N3166  1  0.82910000  0.44520000  0.77290000  1.0
  N  N3167  1  0.80420000  0.44740000  0.75580000  1.0
  N  N3168  1  0.18074000  0.57853000  0.34987000  1.0
  N  N3169  1  0.15368000  0.57913000  0.33401000  1.0
  N  N3170  1  0.20920000  0.65376000  0.26496000  1.0
  N  N3171  1  0.25249000  0.67750000  0.25659000  1.0
  N  N3172  1  0.18200000  0.37487000  0.34727000  1.0
  N  N3173  1  0.14900000  0.32207000  0.33827000  1.0
  N  N3174  1  0.96960000  0.92810000  0.04130000  1.0
  N  N3175  1  0.01800000  0.97430000  0.06390000  1.0
  N  N3176  1  0.09340000  0.11770000  0.06870000  1.0
  N  N3177  1  0.06660000  0.11760000  0.05260000  1.0
  N  N3178  1  0.47550000  0.98450000  0.05760000  1.0
  N  N3179  1  0.42750000  0.93900000  0.03310000  1.0
  N  N3180  1  0.48077000  0.43574000  0.03451000  1.0
  N  N3181  1  0.48644000  0.45818000  0.06142000  1.0
  N  N3182  1  0.57897000  0.61193000  0.07570000  1.0
  N  N3183  1  0.60601000  0.64219000  0.05580000  1.0
  N  N3184  1  0.60926000  0.58446000  0.98412000  1.0
  N  N3185  1  0.57369000  0.53106000  0.97915000  1.0
  N  N3186  1  0.12000000  0.83597000  0.45457000  1.0
  N  N3187  1  0.06750000  0.79430000  0.43800000  1.0
  N  N3188  1  0.01638000  0.70980000  0.35198000  1.0
  N  N3189  1  0.05120000  0.72290000  0.33870000  1.0
  N  N3190  1  0.21462000  0.85717000  0.38779000  1.0
  N  N3191  1  0.23230000  0.88820000  0.41630000  1.0
  N  N3192  1  0.85624000  0.48836000  0.28320000  1.0
  N  N3193  1  0.83410000  0.49450000  0.26880000  1.0
  N  N3194  1  0.68074000  0.36601000  0.20855000  1.0
  N  N3195  1  0.64782000  0.31405000  0.20047000  1.0
  N  N3196  1  0.70572000  0.28716000  0.24208000  1.0
  N  N3197  1  0.75778000  0.33230000  0.26048000  1.0
  N  N3198  1  0.50081000  0.28130000  0.14051000  1.0
  N  N3199  1  0.47556000  0.25210000  0.16126000  1.0
  N  N3200  1  0.34268000  0.18216000  0.17904000  1.0
  N  N3201  1  0.32518000  0.19288000  0.16746000  1.0
  N  N3202  1  0.40330000  0.29106000  0.10916000  1.0
  N  N3203  1  0.44540000  0.31230000  0.10270000  1.0
  N  N3204  1  0.20727000  0.10724000  0.26011000  1.0
  N  N3205  1  0.25921000  0.14923000  0.28004000  1.0
  N  N3206  1  0.28198000  0.20739000  0.36717000  1.0
  N  N3207  1  0.24115000  0.18922000  0.37437000  1.0
  N  N3208  1  0.08595000  0.05936000  0.31231000  1.0
  N  N3209  1  0.07970000  0.03762000  0.28632000  1.0
  N  N3210  1  0.65465000  0.05877000  0.34482000  1.0
  N  N3211  1  0.68312000  0.10982000  0.35274000  1.0
  N  N3212  1  0.72501000  0.18816000  0.28837000  1.0
  N  N3213  1  0.71214000  0.16752000  0.25826000  1.0
  N  N3214  1  0.65233000  0.03319000  0.23692000  1.0
  N  N3215  1  0.63810000  0.00663000  0.25813000  1.0
  N  N3216  1  0.61051000  0.48651000  0.79162000  1.0
  N  N3217  1  0.64696000  0.49859000  0.78175000  1.0
  N  N3218  1  0.46043000  0.29888000  0.68631000  1.0
  N  N3219  1  0.45241000  0.32002000  0.67583000  1.0
  N  N3220  1  0.70851000  0.60089000  0.90020000  1.0
  N  N3221  1  0.65829000  0.56083000  0.87992000  1.0
  N  N3222  1  0.02726000  0.83776000  0.65882000  1.0
  N  N3223  1  0.05240000  0.86783000  0.63783000  1.0
  N  N3224  1  0.03610000  0.80487000  0.55677000  1.0
  N  N3225  1  0.00840000  0.75460000  0.55100000  1.0
  N  N3226  1  0.17230000  0.05620000  0.72710000  1.0
  N  N3227  1  0.19160000  0.04840000  0.74420000  1.0
  N  N3228  1  0.72866000  0.83087000  0.15013000  1.0
  N  N3229  1  0.74512000  0.81967000  0.16599000  1.0
  N  N3230  1  0.88880000  0.94424000  0.23504000  1.0
  N  N3231  1  0.92091000  0.99590000  0.24341000  1.0
  N  N3232  1  0.52760000  0.83473000  0.15273000  1.0
  N  N3233  1  0.48380000  0.81073000  0.16173000  1.0
  N  N3234  1  0.38680000  0.92830000  0.45870000  1.0
  N  N3235  1  0.41040000  0.95410000  0.43610000  1.0
  N  N3236  1  0.54900000  0.02470000  0.43130000  1.0
  N  N3237  1  0.56500000  0.01400000  0.44740000  1.0
  N  N3238  1  0.42690000  0.41790000  0.44240000  1.0
  N  N3239  1  0.40590000  0.39440000  0.46690000  1.0
  N  N3240  1  0.94626000  0.98077000  0.54503000  1.0
  N  N3241  1  0.92502000  0.98644000  0.52826000  1.0
  N  N3242  1  0.00327000  0.07897000  0.46704000  1.0
  N  N3243  1  0.05021000  0.10601000  0.46382000  1.0
  N  N3244  1  0.12514000  0.10926000  0.52480000  1.0
  N  N3245  1  0.09454000  0.07369000  0.54263000  1.0
  N  N3246  1  0.16543000  0.62000000  0.78403000  1.0
  N  N3247  1  0.12950000  0.56750000  0.77320000  1.0
  N  N3248  1  0.16440000  0.51638000  0.80658000  1.0
  N  N3249  1  0.21250000  0.55120000  0.82830000  1.0
  N  N3250  1  0.32683000  0.71462000  0.85745000  1.0
  N  N3251  1  0.31600000  0.73230000  0.84410000  1.0
  N  N3252  1  0.07304000  0.35624000  0.86788000  1.0
  N  N3253  1  0.06530000  0.33410000  0.83960000  1.0
  N  N3254  1  0.97219000  0.18074000  0.81473000  1.0
  N  N3255  1  0.94735000  0.14782000  0.83377000  1.0
  N  N3256  1  0.96364000  0.20572000  0.91856000  1.0
  N  N3257  1  0.99730000  0.25778000  0.92548000  1.0
  N  N3258  1  0.86030000  0.00081000  0.71951000  1.0
  N  N3259  1  0.81430000  0.97556000  0.72346000  1.0
  N  N3260  1  0.66364000  0.84268000  0.66052000  1.0
  N  N3261  1  0.65772000  0.82518000  0.63230000  1.0
  N  N3262  1  0.79414000  0.90330000  0.61224000  1.0
  N  N3263  1  0.84270000  0.94540000  0.63310000  1.0
  N  N3264  1  0.44716000  0.70727000  0.60003000  1.0
  N  N3265  1  0.47917000  0.75921000  0.60998000  1.0
  N  N3266  1  0.41481000  0.78198000  0.57459000  1.0
  N  N3267  1  0.36678000  0.74115000  0.55193000  1.0
  N  N3268  1  0.27364000  0.58595000  0.52659000  1.0
  N  N3269  1  0.29338000  0.57970000  0.54208000  1.0
  N  N3270  1  0.80983000  0.15465000  0.09588000  1.0
  N  N3271  1  0.83038000  0.18312000  0.07330000  1.0
  N  N3272  1  0.93664000  0.22501000  0.03685000  1.0
  N  N3273  1  0.95388000  0.21214000  0.04462000  1.0
  N  N3274  1  0.91541000  0.15233000  0.11914000  1.0
  N  N3275  1  0.87997000  0.13810000  0.13147000  1.0
  N  N3276  1  0.31889000  0.11051000  0.62400000  1.0
  N  N3277  1  0.36521000  0.14696000  0.64837000  1.0
  N  N3278  1  0.27412000  0.96043000  0.66155000  1.0
  N  N3279  1  0.27658000  0.95241000  0.63239000  1.0
  N  N3280  1  0.30831000  0.20851000  0.60762000  1.0
  N  N3281  1  0.27837000  0.15829000  0.59746000  1.0
  N  N3282  1  0.86844000  0.52726000  0.68950000  1.0
  N  N3283  1  0.91457000  0.55240000  0.68457000  1.0
  N  N3284  1  0.97933000  0.53610000  0.73123000  1.0
  N  N3285  1  0.95740000  0.50840000  0.75380000  1.0
  N  N3286  1  0.94520000  0.67230000  0.61610000  1.0
  N  N3287  1  0.94740000  0.69160000  0.64320000  1.0
  N  N3288  1  0.07853000  0.22866000  0.39779000  1.0
  N  N3289  1  0.07913000  0.24512000  0.42545000  1.0
  N  N3290  1  0.15376000  0.38880000  0.44456000  1.0
  N  N3291  1  0.17750000  0.42091000  0.42501000  1.0
  N  N3292  1  0.87487000  0.02760000  0.19287000  1.0
  N  N3293  1  0.82207000  0.98380000  0.17307000  1.0
  N  N3294  1  0.42810000  0.88680000  0.95850000  1.0
  N  N3295  1  0.47430000  0.91040000  0.95630000  1.0
  N  N3296  1  0.61770000  0.04900000  0.02430000  1.0
  N  N3297  1  0.61760000  0.06500000  0.05100000  1.0
  N  N3298  1  0.48450000  0.92690000  0.50900000  1.0
  N  N3299  1  0.43900000  0.90590000  0.51150000  1.0
  N  N3300  1  0.93574000  0.40123000  0.95497000  1.0
  N  N3301  1  0.95818000  0.39676000  0.97174000  1.0
  N  N3302  1  0.11193000  0.53623000  0.03296000  1.0
  N  N3303  1  0.14219000  0.58639000  0.03618000  1.0
  N  N3304  1  0.08446000  0.60034000  0.97520000  1.0
  N  N3305  1  0.03106000  0.55191000  0.95737000  1.0
  N  N3306  1  0.33597000  0.38140000  0.71597000  1.0
  N  N3307  1  0.29430000  0.35630000  0.72680000  1.0
  N  N3308  1  0.20980000  0.35782000  0.69342000  1.0
  N  N3309  1  0.22290000  0.38420000  0.67170000  1.0
  N  N3310  1  0.35717000  0.46938000  0.64255000  1.0
  N  N3311  1  0.38820000  0.47190000  0.65590000  1.0
  N  N3312  1  0.98836000  0.20516000  0.63212000  1.0
  N  N3313  1  0.99450000  0.22570000  0.66040000  1.0
  N  N3314  1  0.86601000  0.15746000  0.68527000  1.0
  N  N3315  1  0.81405000  0.11358000  0.66623000  1.0
  N  N3316  1  0.78716000  0.04508000  0.58144000  1.0
  N  N3317  1  0.83230000  0.07182000  0.57452000  1.0
  N  N3318  1  0.78130000  0.14079000  0.78049000  1.0
  N  N3319  1  0.75210000  0.09084000  0.77654000  1.0
  N  N3320  1  0.68216000  0.00312000  0.83948000  1.0
  N  N3321  1  0.69288000  0.02542000  0.86770000  1.0
  N  N3322  1  0.79106000  0.18190000  0.88776000  1.0
  N  N3323  1  0.81230000  0.20960000  0.86690000  1.0
  N  N3324  1  0.60724000  0.84713000  0.89997000  1.0
  N  N3325  1  0.64923000  0.86919000  0.89002000  1.0
  N  N3326  1  0.70739000  0.84022000  0.92541000  1.0
  N  N3327  1  0.68922000  0.81485000  0.94807000  1.0
  N  N3328  1  0.55936000  0.74705000  0.97341000  1.0
  N  N3329  1  0.53762000  0.75130000  0.95792000  1.0
  N  N3330  1  0.55877000  0.71395000  0.40412000  1.0
  N  N3331  1  0.60982000  0.75708000  0.42670000  1.0
  N  N3332  1  0.68816000  0.89979000  0.46315000  1.0
  N  N3333  1  0.66752000  0.90926000  0.45538000  1.0
  N  N3334  1  0.53319000  0.79627000  0.38086000  1.0
  N  N3335  1  0.50663000  0.74850000  0.36853000  1.0
  N  N3336  1  0.98651000  0.69489000  0.87600000  1.0
  N  N3337  1  0.99859000  0.71684000  0.85163000  1.0
  N  N3338  1  0.79888000  0.61257000  0.83845000  1.0
  N  N3339  1  0.82002000  0.64419000  0.86761000  1.0
  N  N3340  1  0.10089000  0.70069000  0.89238000  1.0
  N  N3341  1  0.06083000  0.68091000  0.90254000  1.0
  N  N3342  1  0.33776000  0.17894000  0.81050000  1.0
  N  N3343  1  0.36783000  0.23000000  0.81543000  1.0
  N  N3344  1  0.30487000  0.24810000  0.76877000  1.0
  N  N3345  1  0.25460000  0.20360000  0.74620000  1.0
  N  N3346  1  0.55620000  0.32910000  0.88390000  1.0
  N  N3347  1  0.54840000  0.30420000  0.85680000  1.0
  N  N3348  1  0.33087000  0.68074000  0.10221000  1.0
  N  N3349  1  0.31967000  0.65368000  0.07455000  1.0
  N  N3350  1  0.44424000  0.70920000  0.05544000  1.0
  N  N3351  1  0.49590000  0.75249000  0.07499000  1.0
  N  N3352  1  0.33473000  0.68200000  0.30713000  1.0
  N  N3353  1  0.31073000  0.64900000  0.32693000  1.0
  N  N3354  1  0.42830000  0.46960000  0.54150000  1.0
  N  N3355  1  0.45410000  0.51800000  0.54370000  1.0
  N  N3356  1  0.52470000  0.59340000  0.47570000  1.0
  N  N3357  1  0.51400000  0.56660000  0.44900000  1.0
  N  N3358  1  0.91790000  0.97550000  0.99100000  1.0
  N  N3359  1  0.89440000  0.92750000  0.98850000  1.0
