# generated using pymatgen
data_Tb2CoH24C48(NO2)8
_symmetry_space_group_name_H-M   'P 1'
_cell_length_a   11.00460000
_cell_length_b   32.86490000
_cell_length_c   32.86490000
_cell_angle_alpha   88.39380000
_cell_angle_beta   80.36200000
_cell_angle_gamma   80.36200000
_symmetry_Int_Tables_number   1
_chemical_formula_structural   Tb2CoH24C48(NO2)8
_chemical_formula_sum   'Tb16 Co8 H192 C384 N64 O128'
_cell_volume   11552.91555620
_cell_formula_units_Z   8
loop_
 _symmetry_equiv_pos_site_id
 _symmetry_equiv_pos_as_xyz
  1  'x, y, z'
loop_
 _atom_site_type_symbol
 _atom_site_label
 _atom_site_symmetry_multiplicity
 _atom_site_fract_x
 _atom_site_fract_y
 _atom_site_fract_z
 _atom_site_occupancy
  Tb  Tb0  1  0.71517000  0.32868000  0.97304000  1.0
  Tb  Tb1  1  0.21509000  0.32502000  0.97529000  1.0
  Tb  Tb2  1  0.51689000  0.17132000  0.52696000  1.0
  Tb  Tb3  1  0.01541000  0.17498000  0.52470000  1.0
  Tb  Tb4  1  0.68821000  0.02696000  0.82868000  1.0
  Tb  Tb5  1  0.19038000  0.02471000  0.82502000  1.0
  Tb  Tb6  1  0.04385000  0.47304000  0.67132000  1.0
  Tb  Tb7  1  0.54011000  0.47529000  0.67499000  1.0
  Tb  Tb8  1  0.28483000  0.67132000  0.02696000  1.0
  Tb  Tb9  1  0.78491000  0.67498000  0.02470000  1.0
  Tb  Tb10  1  0.48311000  0.82868000  0.47304000  1.0
  Tb  Tb11  1  0.98459000  0.82502000  0.47529000  1.0
  Tb  Tb12  1  0.31179000  0.97304000  0.17132000  1.0
  Tb  Tb13  1  0.80962000  0.97529000  0.17498000  1.0
  Tb  Tb14  1  0.95615000  0.52696000  0.32868000  1.0
  Tb  Tb15  1  0.45988000  0.52471000  0.32502000  1.0
  Co  Co16  1  0.78980000  0.12864000  0.03624000  1.0
  Co  Co17  1  0.45468000  0.37136000  0.46376000  1.0
  Co  Co18  1  0.82604000  0.96376000  0.62864000  1.0
  Co  Co19  1  0.91844000  0.53624000  0.87136000  1.0
  Co  Co20  1  0.21020000  0.87136000  0.96376000  1.0
  Co  Co21  1  0.54532000  0.62864000  0.53624000  1.0
  Co  Co22  1  0.17396000  0.03624000  0.37136000  1.0
  Co  Co23  1  0.08156000  0.46376000  0.12864000  1.0
  H  H24  1  0.53860000  0.43820000  0.01780000  1.0
  H  H25  1  0.50210000  0.49540000  0.06080000  1.0
  H  H26  1  0.33190000  0.50270000  0.11370000  1.0
  H  H27  1  0.94150000  0.38820000  0.13960000  1.0
  H  H28  1  0.00170000  0.31900000  0.14940000  1.0
  H  H29  1  0.20960000  0.28960000  0.12940000  1.0
  H  H30  1  0.70950000  0.27930000  0.12590000  1.0
  H  H31  1  0.54520000  0.24290000  0.12990000  1.0
  H  H32  1  0.56620000  0.18710000  0.08650000  1.0
  H  H33  1  0.08290000  0.10420000  0.00100000  1.0
  H  H34  1  0.22670000  0.13900000  0.96220000  1.0
  H  H35  1  0.17970000  0.20990000  0.95690000  1.0
  H  H36  1  0.77320000  0.46090000  0.02710000  1.0
  H  H37  1  0.81150000  0.52870000  0.02830000  1.0
  H  H38  1  0.89600000  0.55820000  0.96820000  1.0
  H  H39  1  0.95010000  0.47180000  0.79860000  1.0
  H  H40  1  0.06190000  0.40500000  0.78800000  1.0
  H  H41  1  0.11780000  0.36720000  0.84460000  1.0
  H  H42  1  0.54460000  0.36230000  0.84830000  1.0
  H  H43  1  0.43440000  0.36450000  0.78870000  1.0
  H  H44  1  0.46540000  0.29630000  0.76170000  1.0
  H  H45  1  0.66600000  0.13230000  0.87390000  1.0
  H  H46  1  0.54760000  0.12660000  0.93160000  1.0
  H  H47  1  0.43550000  0.18770000  0.95830000  1.0
  H  H48  1  0.49460000  0.06180000  0.48220000  1.0
  H  H49  1  0.55830000  0.00460000  0.43920000  1.0
  H  H50  1  0.44830000  0.99730000  0.38630000  1.0
  H  H51  1  0.96930000  0.11180000  0.36040000  1.0
  H  H52  1  0.97010000  0.18100000  0.35060000  1.0
  H  H53  1  0.12860000  0.21040000  0.37060000  1.0
  H  H54  1  0.61470000  0.22070000  0.37410000  1.0
  H  H55  1  0.41800000  0.25710000  0.37010000  1.0
  H  H56  1  0.33980000  0.31290000  0.41350000  1.0
  H  H57  1  0.68810000  0.39580000  0.49900000  1.0
  H  H58  1  0.82790000  0.36100000  0.53780000  1.0
  H  H59  1  0.84650000  0.29010000  0.54310000  1.0
  H  H60  1  0.76120000  0.03910000  0.47290000  1.0
  H  H61  1  0.86850000  0.97130000  0.47170000  1.0
  H  H62  1  0.92240000  0.94180000  0.53180000  1.0
  H  H63  1  0.72050000  0.02820000  0.70140000  1.0
  H  H64  1  0.75490000  0.09500000  0.71200000  1.0
  H  H65  1  0.82960000  0.13280000  0.65540000  1.0
  H  H66  1  0.25520000  0.13770000  0.65170000  1.0
  H  H67  1  0.08760000  0.13550000  0.71130000  1.0
  H  H68  1  0.02340000  0.20370000  0.73830000  1.0
  H  H69  1  0.17220000  0.36770000  0.62610000  1.0
  H  H70  1  0.10580000  0.37340000  0.56840000  1.0
  H  H71  1  0.08150000  0.31230000  0.54170000  1.0
  H  H72  1  0.55640000  0.98220000  0.93820000  1.0
  H  H73  1  0.56290000  0.93920000  0.99540000  1.0
  H  H74  1  0.44560000  0.88630000  0.00270000  1.0
  H  H75  1  0.08110000  0.86040000  0.88820000  1.0
  H  H76  1  0.15110000  0.85060000  0.81900000  1.0
  H  H77  1  0.33900000  0.87060000  0.78960000  1.0
  H  H78  1  0.83540000  0.87410000  0.77930000  1.0
  H  H79  1  0.67510000  0.87010000  0.74290000  1.0
  H  H80  1  0.65270000  0.91350000  0.68710000  1.0
  H  H81  1  0.08390000  0.99900000  0.60420000  1.0
  H  H82  1  0.18890000  0.03780000  0.63900000  1.0
  H  H83  1  0.13660000  0.04310000  0.70990000  1.0
  H  H84  1  0.80030000  0.97290000  0.96090000  1.0
  H  H85  1  0.83980000  0.97170000  0.02870000  1.0
  H  H86  1  0.86420000  0.03180000  0.05820000  1.0
  H  H87  1  0.74870000  0.20140000  0.97180000  1.0
  H  H88  1  0.84990000  0.21200000  0.90500000  1.0
  H  H89  1  0.96240000  0.15540000  0.86720000  1.0
  H  H90  1  0.39290000  0.15170000  0.86230000  1.0
  H  H91  1  0.22310000  0.21130000  0.86450000  1.0
  H  H92  1  0.22710000  0.23830000  0.79630000  1.0
  H  H93  1  0.53990000  0.12610000  0.63230000  1.0
  H  H94  1  0.47920000  0.06840000  0.62660000  1.0
  H  H95  1  0.39380000  0.04170000  0.68770000  1.0
  H  H96  1  0.97680000  0.51780000  0.56180000  1.0
  H  H97  1  0.99750000  0.56080000  0.50460000  1.0
  H  H98  1  0.83460000  0.61370000  0.49730000  1.0
  H  H99  1  0.32970000  0.63960000  0.61180000  1.0
  H  H100  1  0.32070000  0.64940000  0.68100000  1.0
  H  H101  1  0.49920000  0.62940000  0.71040000  1.0
  H  H102  1  0.98880000  0.62590000  0.72070000  1.0
  H  H103  1  0.78810000  0.62990000  0.75710000  1.0
  H  H104  1  0.75330000  0.58650000  0.81290000  1.0
  H  H105  1  0.18710000  0.50100000  0.89580000  1.0
  H  H106  1  0.36570000  0.46220000  0.86100000  1.0
  H  H107  1  0.38960000  0.45690000  0.79010000  1.0
  H  H108  1  0.23410000  0.52710000  0.53910000  1.0
  H  H109  1  0.34020000  0.52830000  0.47130000  1.0
  H  H110  1  0.45420000  0.46820000  0.44180000  1.0
  H  H111  1  0.42190000  0.29860000  0.52820000  1.0
  H  H112  1  0.46690000  0.28800000  0.59500000  1.0
  H  H113  1  0.48500000  0.34460000  0.63280000  1.0
  H  H114  1  0.90690000  0.34830000  0.63770000  1.0
  H  H115  1  0.79890000  0.28870000  0.63550000  1.0
  H  H116  1  0.76170000  0.26170000  0.70370000  1.0
  H  H117  1  0.79830000  0.37390000  0.86770000  1.0
  H  H118  1  0.67420000  0.43160000  0.87340000  1.0
  H  H119  1  0.62320000  0.45830000  0.81230000  1.0
  H  H120  1  0.46140000  0.56180000  0.98220000  1.0
  H  H121  1  0.49790000  0.50460000  0.93920000  1.0
  H  H122  1  0.66810000  0.49730000  0.88630000  1.0
  H  H123  1  0.05850000  0.61180000  0.86040000  1.0
  H  H124  1  0.99830000  0.68100000  0.85060000  1.0
  H  H125  1  0.79040000  0.71040000  0.87060000  1.0
  H  H126  1  0.29050000  0.72070000  0.87410000  1.0
  H  H127  1  0.45480000  0.75710000  0.87010000  1.0
  H  H128  1  0.43380000  0.81290000  0.91350000  1.0
  H  H129  1  0.91710000  0.89580000  0.99900000  1.0
  H  H130  1  0.77330000  0.86100000  0.03780000  1.0
  H  H131  1  0.82030000  0.79010000  0.04310000  1.0
  H  H132  1  0.22680000  0.53910000  0.97290000  1.0
  H  H133  1  0.18850000  0.47130000  0.97170000  1.0
  H  H134  1  0.10400000  0.44180000  0.03180000  1.0
  H  H135  1  0.04990000  0.52820000  0.20140000  1.0
  H  H136  1  0.93810000  0.59500000  0.21200000  1.0
  H  H137  1  0.88220000  0.63280000  0.15540000  1.0
  H  H138  1  0.45540000  0.63770000  0.15170000  1.0
  H  H139  1  0.56560000  0.63550000  0.21130000  1.0
  H  H140  1  0.53460000  0.70370000  0.23830000  1.0
  H  H141  1  0.33400000  0.86770000  0.12610000  1.0
  H  H142  1  0.45240000  0.87340000  0.06840000  1.0
  H  H143  1  0.56450000  0.81230000  0.04170000  1.0
  H  H144  1  0.50540000  0.93820000  0.51780000  1.0
  H  H145  1  0.44170000  0.99540000  0.56080000  1.0
  H  H146  1  0.55170000  0.00270000  0.61370000  1.0
  H  H147  1  0.03070000  0.88820000  0.63960000  1.0
  H  H148  1  0.02990000  0.81900000  0.64940000  1.0
  H  H149  1  0.87140000  0.78960000  0.62940000  1.0
  H  H150  1  0.38530000  0.77930000  0.62590000  1.0
  H  H151  1  0.58200000  0.74290000  0.62990000  1.0
  H  H152  1  0.66020000  0.68710000  0.58650000  1.0
  H  H153  1  0.31190000  0.60420000  0.50100000  1.0
  H  H154  1  0.17210000  0.63900000  0.46220000  1.0
  H  H155  1  0.15350000  0.70990000  0.45690000  1.0
  H  H156  1  0.23880000  0.96090000  0.52710000  1.0
  H  H157  1  0.13150000  0.02870000  0.52830000  1.0
  H  H158  1  0.07760000  0.05820000  0.46820000  1.0
  H  H159  1  0.27950000  0.97180000  0.29860000  1.0
  H  H160  1  0.24510000  0.90500000  0.28800000  1.0
  H  H161  1  0.17040000  0.86720000  0.34460000  1.0
  H  H162  1  0.74480000  0.86230000  0.34830000  1.0
  H  H163  1  0.91240000  0.86450000  0.28870000  1.0
  H  H164  1  0.97660000  0.79630000  0.26170000  1.0
  H  H165  1  0.82780000  0.63230000  0.37390000  1.0
  H  H166  1  0.89420000  0.62660000  0.43160000  1.0
  H  H167  1  0.91850000  0.68770000  0.45830000  1.0
  H  H168  1  0.44360000  0.01780000  0.06180000  1.0
  H  H169  1  0.43710000  0.06080000  0.00460000  1.0
  H  H170  1  0.55440000  0.11370000  0.99730000  1.0
  H  H171  1  0.91890000  0.13960000  0.11180000  1.0
  H  H172  1  0.84890000  0.14940000  0.18100000  1.0
  H  H173  1  0.66100000  0.12940000  0.21040000  1.0
  H  H174  1  0.16460000  0.12590000  0.22070000  1.0
  H  H175  1  0.32490000  0.12990000  0.25710000  1.0
  H  H176  1  0.34730000  0.08650000  0.31290000  1.0
  H  H177  1  0.91610000  0.00100000  0.39580000  1.0
  H  H178  1  0.81110000  0.96220000  0.36100000  1.0
  H  H179  1  0.86340000  0.95690000  0.29010000  1.0
  H  H180  1  0.19970000  0.02710000  0.03910000  1.0
  H  H181  1  0.16020000  0.02830000  0.97130000  1.0
  H  H182  1  0.13580000  0.96820000  0.94180000  1.0
  H  H183  1  0.25130000  0.79860000  0.02820000  1.0
  H  H184  1  0.15010000  0.78800000  0.09500000  1.0
  H  H185  1  0.03760000  0.84460000  0.13280000  1.0
  H  H186  1  0.60710000  0.84830000  0.13770000  1.0
  H  H187  1  0.77690000  0.78870000  0.13550000  1.0
  H  H188  1  0.77290000  0.76170000  0.20370000  1.0
  H  H189  1  0.46010000  0.87390000  0.36770000  1.0
  H  H190  1  0.52080000  0.93160000  0.37340000  1.0
  H  H191  1  0.60620000  0.95830000  0.31230000  1.0
  H  H192  1  0.02320000  0.48220000  0.43820000  1.0
  H  H193  1  0.00250000  0.43920000  0.49540000  1.0
  H  H194  1  0.16540000  0.38630000  0.50270000  1.0
  H  H195  1  0.67030000  0.36040000  0.38820000  1.0
  H  H196  1  0.67930000  0.35060000  0.31900000  1.0
  H  H197  1  0.50080000  0.37060000  0.28960000  1.0
  H  H198  1  0.01120000  0.37410000  0.27930000  1.0
  H  H199  1  0.21190000  0.37010000  0.24290000  1.0
  H  H200  1  0.24670000  0.41350000  0.18710000  1.0
  H  H201  1  0.81290000  0.49900000  0.10420000  1.0
  H  H202  1  0.63430000  0.53780000  0.13900000  1.0
  H  H203  1  0.61040000  0.54310000  0.20990000  1.0
  H  H204  1  0.76590000  0.47290000  0.46090000  1.0
  H  H205  1  0.65980000  0.47170000  0.52870000  1.0
  H  H206  1  0.54580000  0.53180000  0.55820000  1.0
  H  H207  1  0.57810000  0.70140000  0.47180000  1.0
  H  H208  1  0.53310000  0.71200000  0.40500000  1.0
  H  H209  1  0.51500000  0.65540000  0.36720000  1.0
  H  H210  1  0.09310000  0.65170000  0.36230000  1.0
  H  H211  1  0.20110000  0.71130000  0.36450000  1.0
  H  H212  1  0.23830000  0.73830000  0.29630000  1.0
  H  H213  1  0.20170000  0.62610000  0.13230000  1.0
  H  H214  1  0.32580000  0.56840000  0.12660000  1.0
  H  H215  1  0.37680000  0.54170000  0.18770000  1.0
  C  C216  1  0.41525000  0.37612000  0.01758000  1.0
  C  C217  1  0.39908000  0.41017000  0.04867000  1.0
  C  C218  1  0.47393000  0.44089000  0.04025000  1.0
  C  C219  1  0.45131000  0.47525000  0.06533000  1.0
  C  C220  1  0.35063000  0.47895000  0.09759000  1.0
  C  C221  1  0.30682000  0.41469000  0.08367000  1.0
  C  C222  1  0.22570000  0.38337000  0.10023000  1.0
  C  C223  1  0.02469000  0.37646000  0.13116000  1.0
  C  C224  1  0.05988000  0.33507000  0.13717000  1.0
  C  C225  1  0.18339000  0.31751000  0.12471000  1.0
  C  C226  1  0.26818000  0.34175000  0.10529000  1.0
  C  C227  1  0.40246000  0.32184000  0.09104000  1.0
  C  C228  1  0.93116000  0.27001000  0.07847000  1.0
  C  C229  1  0.82401000  0.24586000  0.08012000  1.0
  C  C230  1  0.71606000  0.25703000  0.10845000  1.0
  C  C231  1  0.61831000  0.23533000  0.11105000  1.0
  C  C232  1  0.63175000  0.20196000  0.08494000  1.0
  C  C233  1  0.83099000  0.21191000  0.05451000  1.0
  C  C234  1  0.94255000  0.19400000  0.02410000  1.0
  C  C235  1  0.06773000  0.13288000  0.00086000  1.0
  C  C236  1  0.15271000  0.15344000  0.97654000  1.0
  C  C237  1  0.12545000  0.19560000  0.97410000  1.0
  C  C238  1  0.01801000  0.21699000  0.99699000  1.0
  C  C239  1  0.97877000  0.26272000  0.98874000  1.0
  C  C240  1  0.80416000  0.40886000  0.96482000  1.0
  C  C241  1  0.84475000  0.45050000  0.96680000  1.0
  C  C242  1  0.81044000  0.47287000  0.00325000  1.0
  C  C243  1  0.83219000  0.51350000  0.00392000  1.0
  C  C244  1  0.88482000  0.53080000  0.96796000  1.0
  C  C245  1  0.90621000  0.46927000  0.93231000  1.0
  C  C246  1  0.95655000  0.44871000  0.89199000  1.0
  C  C247  1  0.96955000  0.45586000  0.82124000  1.0
  C  C248  1  0.03851000  0.41593000  0.81445000  1.0
  C  C249  1  0.07053000  0.39349000  0.84825000  1.0
  C  C250  1  0.03246000  0.40986000  0.88802000  1.0
  C  C251  1  0.08713000  0.38723000  0.92311000  1.0
  C  C252  1  0.62170000  0.30550000  0.90150000  1.0
  C  C253  1  0.55900000  0.30150000  0.86150000  1.0
  C  C254  1  0.52720000  0.33790000  0.83870000  1.0
  C  C255  1  0.46970000  0.34070000  0.80130000  1.0
  C  C256  1  0.47980000  0.29960000  0.78840000  1.0
  C  C257  1  0.53450000  0.26630000  0.84790000  1.0
  C  C258  1  0.54890000  0.22800000  0.87220000  1.0
  C  C259  1  0.61460000  0.15670000  0.88370000  1.0
  C  C260  1  0.54900000  0.15180000  0.91800000  1.0
  C  C261  1  0.48250000  0.18740000  0.93200000  1.0
  C  C262  1  0.47710000  0.22550000  0.90990000  1.0
  C  C263  1  0.38524000  0.26008000  0.93004000  1.0
  C  C264  1  0.30895000  0.12388000  0.48242000  1.0
  C  C265  1  0.35792000  0.08983000  0.45133000  1.0
  C  C266  1  0.45507000  0.05911000  0.45975000  1.0
  C  C267  1  0.49189000  0.02475000  0.43467000  1.0
  C  C268  1  0.42717000  0.02105000  0.40241000  1.0
  C  C269  1  0.30518000  0.08531000  0.41633000  1.0
  C  C270  1  0.20930000  0.11663000  0.39977000  1.0
  C  C271  1  0.03231000  0.12354000  0.36884000  1.0
  C  C272  1  0.03212000  0.16493000  0.36283000  1.0
  C  C273  1  0.12561000  0.18249000  0.37529000  1.0
  C  C274  1  0.21522000  0.15825000  0.39471000  1.0
  C  C275  1  0.31534000  0.17816000  0.40896000  1.0
  C  C276  1  0.77964000  0.22999000  0.42153000  1.0
  C  C277  1  0.64999000  0.25414000  0.41988000  1.0
  C  C278  1  0.58154000  0.24297000  0.39155000  1.0
  C  C279  1  0.46469000  0.26467000  0.38895000  1.0
  C  C280  1  0.41865000  0.29804000  0.41506000  1.0
  C  C281  1  0.59741000  0.28809000  0.44549000  1.0
  C  C282  1  0.66065000  0.30600000  0.47590000  1.0
  C  C283  1  0.70147000  0.36712000  0.49914000  1.0
  C  C284  1  0.78269000  0.34656000  0.52346000  1.0
  C  C285  1  0.79515000  0.30440000  0.52590000  1.0
  C  C286  1  0.73199000  0.28301000  0.50301000  1.0
  C  C287  1  0.73023000  0.23728000  0.51126000  1.0
  C  C288  1  0.67784000  0.09114000  0.53518000  1.0
  C  C289  1  0.76205000  0.04950000  0.53320000  1.0
  C  C290  1  0.78656000  0.02713000  0.49675000  1.0
  C  C291  1  0.84961000  0.98650000  0.49608000  1.0
  C  C292  1  0.88358000  0.96920000  0.53204000  1.0
  C  C293  1  0.80779000  0.03073000  0.56769000  1.0
  C  C294  1  0.79725000  0.05129000  0.60801000  1.0
  C  C295  1  0.74665000  0.04414000  0.67876000  1.0
  C  C296  1  0.76889000  0.08407000  0.68555000  1.0
  C  C297  1  0.81227000  0.10651000  0.65175000  1.0
  C  C298  1  0.83034000  0.09014000  0.61198000  1.0
  C  C299  1  0.89747000  0.11277000  0.57689000  1.0
  C  C300  1  0.32870000  0.19450000  0.59850000  1.0
  C  C301  1  0.22200000  0.19850000  0.63850000  1.0
  C  C302  1  0.20380000  0.16210000  0.66130000  1.0
  C  C303  1  0.11170000  0.15930000  0.69870000  1.0
  C  C304  1  0.06780000  0.20040000  0.71160000  1.0
  C  C305  1  0.14870000  0.23370000  0.65210000  1.0
  C  C306  1  0.14910000  0.27200000  0.62780000  1.0
  C  C307  1  0.15500000  0.34330000  0.61630000  1.0
  C  C308  1  0.11880000  0.34820000  0.58200000  1.0
  C  C309  1  0.10190000  0.31260000  0.56800000  1.0
  C  C310  1  0.11250000  0.27450000  0.59010000  1.0
  C  C311  1  0.07536000  0.23992000  0.56996000  1.0
  C  C312  1  0.43283000  0.98242000  0.87612000  1.0
  C  C313  1  0.44775000  0.95133000  0.91017000  1.0
  C  C314  1  0.51418000  0.95975000  0.94089000  1.0
  C  C315  1  0.51664000  0.93467000  0.97525000  1.0
  C  C316  1  0.44822000  0.90241000  0.97895000  1.0
  C  C317  1  0.39049000  0.91633000  0.91469000  1.0
  C  C318  1  0.32593000  0.89977000  0.88337000  1.0
  C  C319  1  0.15585000  0.86884000  0.87646000  1.0
  C  C320  1  0.19705000  0.86283000  0.83507000  1.0
  C  C321  1  0.30810000  0.87529000  0.81751000  1.0
  C  C322  1  0.37347000  0.89471000  0.84175000  1.0
  C  C323  1  0.49350000  0.90896000  0.82184000  1.0
  C  C324  1  0.00963000  0.92153000  0.77001000  1.0
  C  C325  1  0.90413000  0.91988000  0.74586000  1.0
  C  C326  1  0.82451000  0.89155000  0.75703000  1.0
  C  C327  1  0.72936000  0.88895000  0.73533000  1.0
  C  C328  1  0.71669000  0.91506000  0.70196000  1.0
  C  C329  1  0.88550000  0.94549000  0.71191000  1.0
  C  C330  1  0.96665000  0.97590000  0.69400000  1.0
  C  C331  1  0.06859000  0.99914000  0.63288000  1.0
  C  C332  1  0.12925000  0.02346000  0.65344000  1.0
  C  C333  1  0.09955000  0.02590000  0.69560000  1.0
  C  C334  1  0.01500000  0.00301000  0.71699000  1.0
  C  C335  1  0.96751000  0.01126000  0.76272000  1.0
  C  C336  1  0.76898000  0.03518000  0.90886000  1.0
  C  C337  1  0.81155000  0.03320000  0.95050000  1.0
  C  C338  1  0.81369000  0.99675000  0.97287000  1.0
  C  C339  1  0.83611000  0.99608000  0.01350000  1.0
  C  C340  1  0.85278000  0.03204000  0.03080000  1.0
  C  C341  1  0.83852000  0.06769000  0.96927000  1.0
  C  C342  1  0.84854000  0.10801000  0.94871000  1.0
  C  C343  1  0.79079000  0.17876000  0.95586000  1.0
  C  C344  1  0.85296000  0.18555000  0.91593000  1.0
  C  C345  1  0.91878000  0.15175000  0.89349000  1.0
  C  C346  1  0.92048000  0.11198000  0.90986000  1.0
  C  C347  1  0.01024000  0.07689000  0.88723000  1.0
  C  C348  1  0.52320000  0.09850000  0.80550000  1.0
  C  C349  1  0.42050000  0.13850000  0.80150000  1.0
  C  C350  1  0.36590000  0.16130000  0.83790000  1.0
  C  C351  1  0.27100000  0.19870000  0.84070000  1.0
  C  C352  1  0.26820000  0.21160000  0.79960000  1.0
  C  C353  1  0.38240000  0.15210000  0.76630000  1.0
  C  C354  1  0.42110000  0.12780000  0.72800000  1.0
  C  C355  1  0.49830000  0.11630000  0.65670000  1.0
  C  C356  1  0.46700000  0.08200000  0.65180000  1.0
  C  C357  1  0.41450000  0.06800000  0.68740000  1.0
  C  C358  1  0.38700000  0.09010000  0.72550000  1.0
  C  C359  1  0.31528000  0.06996000  0.76008000  1.0
  C  C360  1  0.79137000  0.51758000  0.62388000  1.0
  C  C361  1  0.80925000  0.54867000  0.58983000  1.0
  C  C362  1  0.91482000  0.54025000  0.55911000  1.0
  C  C363  1  0.92656000  0.56533000  0.52475000  1.0
  C  C364  1  0.82958000  0.59759000  0.52105000  1.0
  C  C365  1  0.72151000  0.58367000  0.58531000  1.0
  C  C366  1  0.60907000  0.60023000  0.61663000  1.0
  C  C367  1  0.40115000  0.63116000  0.62354000  1.0
  C  C368  1  0.39495000  0.63717000  0.66493000  1.0
  C  C369  1  0.50090000  0.62471000  0.68249000  1.0
  C  C370  1  0.60993000  0.60529000  0.65825000  1.0
  C  C371  1  0.72430000  0.59104000  0.67816000  1.0
  C  C372  1  0.20117000  0.57847000  0.72999000  1.0
  C  C373  1  0.06987000  0.58012000  0.75414000  1.0
  C  C374  1  0.97309000  0.60845000  0.74297000  1.0
  C  C375  1  0.85364000  0.61105000  0.76467000  1.0
  C  C376  1  0.83371000  0.58494000  0.79804000  1.0
  C  C377  1  0.04290000  0.55451000  0.78809000  1.0
  C  C378  1  0.13655000  0.52410000  0.80600000  1.0
  C  C379  1  0.20061000  0.50086000  0.86712000  1.0
  C  C380  1  0.30615000  0.47654000  0.84656000  1.0
  C  C381  1  0.32105000  0.47410000  0.80440000  1.0
  C  C382  1  0.23500000  0.49699000  0.78301000  1.0
  C  C383  1  0.24149000  0.48874000  0.73728000  1.0
  C  C384  1  0.21302000  0.46482000  0.59114000  1.0
  C  C385  1  0.29525000  0.46680000  0.54950000  1.0
  C  C386  1  0.28331000  0.50325000  0.52713000  1.0
  C  C387  1  0.34569000  0.50392000  0.48650000  1.0
  C  C388  1  0.41562000  0.46796000  0.46920000  1.0
  C  C389  1  0.37548000  0.43231000  0.53073000  1.0
  C  C390  1  0.40526000  0.39199000  0.55129000  1.0
  C  C391  1  0.42541000  0.32124000  0.54414000  1.0
  C  C392  1  0.45444000  0.31445000  0.58407000  1.0
  C  C393  1  0.46402000  0.34825000  0.60651000  1.0
  C  C394  1  0.44232000  0.38802000  0.59014000  1.0
  C  C395  1  0.47436000  0.42311000  0.61277000  1.0
  C  C396  1  0.92720000  0.40150000  0.69450000  1.0
  C  C397  1  0.86050000  0.36150000  0.69850000  1.0
  C  C398  1  0.86510000  0.33870000  0.66210000  1.0
  C  C399  1  0.81040000  0.30130000  0.65930000  1.0
  C  C400  1  0.77940000  0.28840000  0.70040000  1.0
  C  C401  1  0.80080000  0.34790000  0.73370000  1.0
  C  C402  1  0.77690000  0.37220000  0.77200000  1.0
  C  C403  1  0.77130000  0.38370000  0.84330000  1.0
  C  C404  1  0.70080000  0.41800000  0.84820000  1.0
  C  C405  1  0.66990000  0.43200000  0.81260000  1.0
  C  C406  1  0.70260000  0.40990000  0.77450000  1.0
  C  C407  1  0.64532000  0.43004000  0.73992000  1.0
  C  C408  1  0.58475000  0.62388000  0.98242000  1.0
  C  C409  1  0.60092000  0.58983000  0.95133000  1.0
  C  C410  1  0.52607000  0.55911000  0.95975000  1.0
  C  C411  1  0.54869000  0.52475000  0.93467000  1.0
  C  C412  1  0.64937000  0.52105000  0.90241000  1.0
  C  C413  1  0.69318000  0.58531000  0.91633000  1.0
  C  C414  1  0.77430000  0.61663000  0.89977000  1.0
  C  C415  1  0.97531000  0.62354000  0.86884000  1.0
  C  C416  1  0.94012000  0.66493000  0.86283000  1.0
  C  C417  1  0.81661000  0.68249000  0.87529000  1.0
  C  C418  1  0.73182000  0.65825000  0.89471000  1.0
  C  C419  1  0.59754000  0.67816000  0.90896000  1.0
  C  C420  1  0.06884000  0.72999000  0.92153000  1.0
  C  C421  1  0.17599000  0.75414000  0.91988000  1.0
  C  C422  1  0.28394000  0.74297000  0.89155000  1.0
  C  C423  1  0.38169000  0.76467000  0.88895000  1.0
  C  C424  1  0.36825000  0.79804000  0.91506000  1.0
  C  C425  1  0.16901000  0.78809000  0.94549000  1.0
  C  C426  1  0.05745000  0.80600000  0.97590000  1.0
  C  C427  1  0.93227000  0.86712000  0.99914000  1.0
  C  C428  1  0.84729000  0.84656000  0.02346000  1.0
  C  C429  1  0.87455000  0.80440000  0.02590000  1.0
  C  C430  1  0.98199000  0.78301000  0.00301000  1.0
  C  C431  1  0.02123000  0.73728000  0.01126000  1.0
  C  C432  1  0.19584000  0.59114000  0.03518000  1.0
  C  C433  1  0.15525000  0.54950000  0.03320000  1.0
  C  C434  1  0.18956000  0.52713000  0.99675000  1.0
  C  C435  1  0.16781000  0.48650000  0.99608000  1.0
  C  C436  1  0.11518000  0.46920000  0.03204000  1.0
  C  C437  1  0.09379000  0.53073000  0.06769000  1.0
  C  C438  1  0.04345000  0.55129000  0.10801000  1.0
  C  C439  1  0.03045000  0.54414000  0.17876000  1.0
  C  C440  1  0.96149000  0.58407000  0.18555000  1.0
  C  C441  1  0.92947000  0.60651000  0.15175000  1.0
  C  C442  1  0.96754000  0.59014000  0.11198000  1.0
  C  C443  1  0.91287000  0.61277000  0.07689000  1.0
  C  C444  1  0.37830000  0.69450000  0.09850000  1.0
  C  C445  1  0.44100000  0.69850000  0.13850000  1.0
  C  C446  1  0.47280000  0.66210000  0.16130000  1.0
  C  C447  1  0.53030000  0.65930000  0.19870000  1.0
  C  C448  1  0.52020000  0.70040000  0.21160000  1.0
  C  C449  1  0.46550000  0.73370000  0.15210000  1.0
  C  C450  1  0.45110000  0.77200000  0.12780000  1.0
  C  C451  1  0.38540000  0.84330000  0.11630000  1.0
  C  C452  1  0.45100000  0.84820000  0.08200000  1.0
  C  C453  1  0.51750000  0.81260000  0.06800000  1.0
  C  C454  1  0.52290000  0.77450000  0.09010000  1.0
  C  C455  1  0.61476000  0.73992000  0.06996000  1.0
  C  C456  1  0.69105000  0.87612000  0.51758000  1.0
  C  C457  1  0.64208000  0.91017000  0.54867000  1.0
  C  C458  1  0.54493000  0.94089000  0.54025000  1.0
  C  C459  1  0.50811000  0.97525000  0.56533000  1.0
  C  C460  1  0.57283000  0.97895000  0.59759000  1.0
  C  C461  1  0.69482000  0.91469000  0.58367000  1.0
  C  C462  1  0.79070000  0.88337000  0.60023000  1.0
  C  C463  1  0.96769000  0.87646000  0.63116000  1.0
  C  C464  1  0.96788000  0.83507000  0.63717000  1.0
  C  C465  1  0.87439000  0.81751000  0.62471000  1.0
  C  C466  1  0.78478000  0.84175000  0.60529000  1.0
  C  C467  1  0.68466000  0.82184000  0.59104000  1.0
  C  C468  1  0.22036000  0.77001000  0.57847000  1.0
  C  C469  1  0.35001000  0.74586000  0.58012000  1.0
  C  C470  1  0.41846000  0.75703000  0.60845000  1.0
  C  C471  1  0.53531000  0.73533000  0.61105000  1.0
  C  C472  1  0.58135000  0.70196000  0.58494000  1.0
  C  C473  1  0.40259000  0.71191000  0.55451000  1.0
  C  C474  1  0.33935000  0.69400000  0.52410000  1.0
  C  C475  1  0.29853000  0.63288000  0.50086000  1.0
  C  C476  1  0.21731000  0.65344000  0.47654000  1.0
  C  C477  1  0.20485000  0.69560000  0.47410000  1.0
  C  C478  1  0.26801000  0.71699000  0.49699000  1.0
  C  C479  1  0.26977000  0.76272000  0.48874000  1.0
  C  C480  1  0.32216000  0.90886000  0.46482000  1.0
  C  C481  1  0.23795000  0.95050000  0.46680000  1.0
  C  C482  1  0.21344000  0.97287000  0.50325000  1.0
  C  C483  1  0.15039000  0.01350000  0.50392000  1.0
  C  C484  1  0.11642000  0.03080000  0.46796000  1.0
  C  C485  1  0.19221000  0.96927000  0.43231000  1.0
  C  C486  1  0.20275000  0.94871000  0.39199000  1.0
  C  C487  1  0.25335000  0.95586000  0.32124000  1.0
  C  C488  1  0.23111000  0.91593000  0.31445000  1.0
  C  C489  1  0.18773000  0.89349000  0.34825000  1.0
  C  C490  1  0.16966000  0.90986000  0.38802000  1.0
  C  C491  1  0.10253000  0.88723000  0.42311000  1.0
  C  C492  1  0.67130000  0.80550000  0.40150000  1.0
  C  C493  1  0.77800000  0.80150000  0.36150000  1.0
  C  C494  1  0.79620000  0.83790000  0.33870000  1.0
  C  C495  1  0.88830000  0.84070000  0.30130000  1.0
  C  C496  1  0.93220000  0.79960000  0.28840000  1.0
  C  C497  1  0.85130000  0.76630000  0.34790000  1.0
  C  C498  1  0.85090000  0.72800000  0.37220000  1.0
  C  C499  1  0.84500000  0.65670000  0.38370000  1.0
  C  C500  1  0.88120000  0.65180000  0.41800000  1.0
  C  C501  1  0.89810000  0.68740000  0.43200000  1.0
  C  C502  1  0.88750000  0.72550000  0.40990000  1.0
  C  C503  1  0.92464000  0.76008000  0.43004000  1.0
  C  C504  1  0.56717000  0.01758000  0.12388000  1.0
  C  C505  1  0.55225000  0.04867000  0.08983000  1.0
  C  C506  1  0.48582000  0.04025000  0.05911000  1.0
  C  C507  1  0.48336000  0.06533000  0.02475000  1.0
  C  C508  1  0.55178000  0.09759000  0.02105000  1.0
  C  C509  1  0.60951000  0.08367000  0.08531000  1.0
  C  C510  1  0.67407000  0.10023000  0.11663000  1.0
  C  C511  1  0.84415000  0.13116000  0.12354000  1.0
  C  C512  1  0.80295000  0.13717000  0.16493000  1.0
  C  C513  1  0.69190000  0.12471000  0.18249000  1.0
  C  C514  1  0.62653000  0.10529000  0.15825000  1.0
  C  C515  1  0.50650000  0.09104000  0.17816000  1.0
  C  C516  1  0.99037000  0.07847000  0.22999000  1.0
  C  C517  1  0.09587000  0.08012000  0.25414000  1.0
  C  C518  1  0.17549000  0.10845000  0.24297000  1.0
  C  C519  1  0.27064000  0.11105000  0.26467000  1.0
  C  C520  1  0.28331000  0.08494000  0.29804000  1.0
  C  C521  1  0.11450000  0.05451000  0.28809000  1.0
  C  C522  1  0.03335000  0.02410000  0.30600000  1.0
  C  C523  1  0.93141000  0.00086000  0.36712000  1.0
  C  C524  1  0.87075000  0.97654000  0.34656000  1.0
  C  C525  1  0.90045000  0.97410000  0.30440000  1.0
  C  C526  1  0.98500000  0.99699000  0.28301000  1.0
  C  C527  1  0.03249000  0.98874000  0.23728000  1.0
  C  C528  1  0.23102000  0.96482000  0.09114000  1.0
  C  C529  1  0.18845000  0.96680000  0.04950000  1.0
  C  C530  1  0.18631000  0.00325000  0.02713000  1.0
  C  C531  1  0.16389000  0.00392000  0.98650000  1.0
  C  C532  1  0.14722000  0.96796000  0.96920000  1.0
  C  C533  1  0.16148000  0.93231000  0.03073000  1.0
  C  C534  1  0.15146000  0.89199000  0.05129000  1.0
  C  C535  1  0.20921000  0.82124000  0.04414000  1.0
  C  C536  1  0.14704000  0.81445000  0.08407000  1.0
  C  C537  1  0.08122000  0.84825000  0.10651000  1.0
  C  C538  1  0.07952000  0.88802000  0.09014000  1.0
  C  C539  1  0.98976000  0.92311000  0.11277000  1.0
  C  C540  1  0.47680000  0.90150000  0.19450000  1.0
  C  C541  1  0.57950000  0.86150000  0.19850000  1.0
  C  C542  1  0.63410000  0.83870000  0.16210000  1.0
  C  C543  1  0.72900000  0.80130000  0.15930000  1.0
  C  C544  1  0.73180000  0.78840000  0.20040000  1.0
  C  C545  1  0.61760000  0.84790000  0.23370000  1.0
  C  C546  1  0.57890000  0.87220000  0.27200000  1.0
  C  C547  1  0.50170000  0.88370000  0.34330000  1.0
  C  C548  1  0.53300000  0.91800000  0.34820000  1.0
  C  C549  1  0.58550000  0.93200000  0.31260000  1.0
  C  C550  1  0.61300000  0.90990000  0.27450000  1.0
  C  C551  1  0.68472000  0.93004000  0.23992000  1.0
  C  C552  1  0.20863000  0.48242000  0.37612000  1.0
  C  C553  1  0.19075000  0.45133000  0.41017000  1.0
  C  C554  1  0.08518000  0.45975000  0.44089000  1.0
  C  C555  1  0.07344000  0.43467000  0.47525000  1.0
  C  C556  1  0.17042000  0.40241000  0.47895000  1.0
  C  C557  1  0.27849000  0.41633000  0.41469000  1.0
  C  C558  1  0.39093000  0.39977000  0.38337000  1.0
  C  C559  1  0.59885000  0.36884000  0.37646000  1.0
  C  C560  1  0.60505000  0.36283000  0.33507000  1.0
  C  C561  1  0.49910000  0.37529000  0.31751000  1.0
  C  C562  1  0.39007000  0.39471000  0.34175000  1.0
  C  C563  1  0.27570000  0.40896000  0.32184000  1.0
  C  C564  1  0.79883000  0.42153000  0.27001000  1.0
  C  C565  1  0.93013000  0.41988000  0.24586000  1.0
  C  C566  1  0.02691000  0.39155000  0.25703000  1.0
  C  C567  1  0.14636000  0.38895000  0.23533000  1.0
  C  C568  1  0.16629000  0.41506000  0.20196000  1.0
  C  C569  1  0.95710000  0.44549000  0.21191000  1.0
  C  C570  1  0.86345000  0.47590000  0.19400000  1.0
  C  C571  1  0.79939000  0.49914000  0.13288000  1.0
  C  C572  1  0.69385000  0.52346000  0.15344000  1.0
  C  C573  1  0.67895000  0.52590000  0.19560000  1.0
  C  C574  1  0.76500000  0.50301000  0.21699000  1.0
  C  C575  1  0.75851000  0.51126000  0.26272000  1.0
  C  C576  1  0.78698000  0.53518000  0.40886000  1.0
  C  C577  1  0.70475000  0.53320000  0.45050000  1.0
  C  C578  1  0.71669000  0.49675000  0.47287000  1.0
  C  C579  1  0.65431000  0.49608000  0.51350000  1.0
  C  C580  1  0.58438000  0.53204000  0.53080000  1.0
  C  C581  1  0.62452000  0.56769000  0.46927000  1.0
  C  C582  1  0.59474000  0.60801000  0.44871000  1.0
  C  C583  1  0.57459000  0.67876000  0.45586000  1.0
  C  C584  1  0.54556000  0.68555000  0.41593000  1.0
  C  C585  1  0.53598000  0.65175000  0.39349000  1.0
  C  C586  1  0.55768000  0.61198000  0.40986000  1.0
  C  C587  1  0.52564000  0.57689000  0.38723000  1.0
  C  C588  1  0.07280000  0.59850000  0.30550000  1.0
  C  C589  1  0.13950000  0.63850000  0.30150000  1.0
  C  C590  1  0.13490000  0.66130000  0.33790000  1.0
  C  C591  1  0.18960000  0.69870000  0.34070000  1.0
  C  C592  1  0.22060000  0.71160000  0.29960000  1.0
  C  C593  1  0.19920000  0.65210000  0.26630000  1.0
  C  C594  1  0.22310000  0.62780000  0.22800000  1.0
  C  C595  1  0.22870000  0.61630000  0.15670000  1.0
  C  C596  1  0.29920000  0.58200000  0.15180000  1.0
  C  C597  1  0.33010000  0.56800000  0.18740000  1.0
  C  C598  1  0.29740000  0.59010000  0.22550000  1.0
  C  C599  1  0.35468000  0.56996000  0.26008000  1.0
  N  N600  1  0.27963000  0.44937000  0.10617000  1.0
  N  N601  1  0.10566000  0.40084000  0.11364000  1.0
  N  N602  1  0.73551000  0.19035000  0.05763000  1.0
  N  N603  1  0.96373000  0.15267000  0.02427000  1.0
  N  N604  1  0.93093000  0.47178000  0.85896000  1.0
  N  N605  1  0.92030000  0.50942000  0.93258000  1.0
  N  N606  1  0.62950000  0.18840000  0.85720000  1.0
  N  N607  1  0.50720000  0.26450000  0.80930000  1.0
  N  N608  1  0.33517000  0.05063000  0.39383000  1.0
  N  N609  1  0.12014000  0.09916000  0.38636000  1.0
  N  N610  1  0.48349000  0.30965000  0.44237000  1.0
  N  N611  1  0.64067000  0.34733000  0.47573000  1.0
  N  N612  1  0.76167000  0.02822000  0.64104000  1.0
  N  N613  1  0.86230000  0.99058000  0.56742000  1.0
  N  N614  1  0.17510000  0.31160000  0.64280000  1.0
  N  N615  1  0.08100000  0.23550000  0.69070000  1.0
  N  N616  1  0.38580000  0.89383000  0.94937000  1.0
  N  N617  1  0.21930000  0.88636000  0.90084000  1.0
  N  N618  1  0.79314000  0.94237000  0.69035000  1.0
  N  N619  1  0.98800000  0.97573000  0.65267000  1.0
  N  N620  1  0.78989000  0.14104000  0.97178000  1.0
  N  N621  1  0.85288000  0.06742000  0.00942000  1.0
  N  N622  1  0.48670000  0.14280000  0.68840000  1.0
  N  N623  1  0.31650000  0.19070000  0.76450000  1.0
  N  N624  1  0.72900000  0.60617000  0.55063000  1.0
  N  N625  1  0.50650000  0.61364000  0.59916000  1.0
  N  N626  1  0.92586000  0.55763000  0.80965000  1.0
  N  N627  1  0.11640000  0.52427000  0.84733000  1.0
  N  N628  1  0.40271000  0.35896000  0.52822000  1.0
  N  N629  1  0.42972000  0.43258000  0.49058000  1.0
  N  N630  1  0.81790000  0.35720000  0.81160000  1.0
  N  N631  1  0.77170000  0.30930000  0.73550000  1.0
  N  N632  1  0.72037000  0.55063000  0.89383000  1.0
  N  N633  1  0.89434000  0.59916000  0.88636000  1.0
  N  N634  1  0.26449000  0.80965000  0.94237000  1.0
  N  N635  1  0.03627000  0.84733000  0.97573000  1.0
  N  N636  1  0.06907000  0.52822000  0.14104000  1.0
  N  N637  1  0.07970000  0.49058000  0.06742000  1.0
  N  N638  1  0.37050000  0.81160000  0.14280000  1.0
  N  N639  1  0.49280000  0.73550000  0.19070000  1.0
  N  N640  1  0.66483000  0.94937000  0.60617000  1.0
  N  N641  1  0.87986000  0.90084000  0.61364000  1.0
  N  N642  1  0.51651000  0.69035000  0.55763000  1.0
  N  N643  1  0.35933000  0.65267000  0.52427000  1.0
  N  N644  1  0.23833000  0.97178000  0.35896000  1.0
  N  N645  1  0.13770000  0.00942000  0.43258000  1.0
  N  N646  1  0.82490000  0.68840000  0.35720000  1.0
  N  N647  1  0.91900000  0.76450000  0.30930000  1.0
  N  N648  1  0.61420000  0.10617000  0.05063000  1.0
  N  N649  1  0.78070000  0.11364000  0.09916000  1.0
  N  N650  1  0.20686000  0.05763000  0.30965000  1.0
  N  N651  1  0.01200000  0.02427000  0.34733000  1.0
  N  N652  1  0.21011000  0.85896000  0.02822000  1.0
  N  N653  1  0.14712000  0.93258000  0.99058000  1.0
  N  N654  1  0.51330000  0.85720000  0.31160000  1.0
  N  N655  1  0.68350000  0.80930000  0.23550000  1.0
  N  N656  1  0.27100000  0.39383000  0.44937000  1.0
  N  N657  1  0.49350000  0.38636000  0.40084000  1.0
  N  N658  1  0.07414000  0.44237000  0.19035000  1.0
  N  N659  1  0.88360000  0.47573000  0.15267000  1.0
  N  N660  1  0.59729000  0.64104000  0.47178000  1.0
  N  N661  1  0.57028000  0.56742000  0.50942000  1.0
  N  N662  1  0.18210000  0.64280000  0.18840000  1.0
  N  N663  1  0.22830000  0.69070000  0.26450000  1.0
  O  O664  1  0.51990000  0.36718000  0.99602000  1.0
  O  O665  1  0.31933000  0.36128000  0.01466000  1.0
  O  O666  1  0.41998000  0.28898000  0.07146000  1.0
  O  O667  1  0.48698000  0.33998000  0.10006000  1.0
  O  O668  1  0.72147000  0.40555000  0.94411000  1.0
  O  O669  1  0.85056000  0.37909000  0.98559000  1.0
  O  O670  1  0.11846000  0.40623000  0.94965000  1.0
  O  O671  1  0.10055000  0.34785000  0.92165000  1.0
  O  O672  1  0.90497000  0.30833000  0.07653000  1.0
  O  O673  1  0.03851000  0.24944000  0.07914000  1.0
  O  O674  1  0.86361000  0.27516000  0.99222000  1.0
  O  O675  1  0.06420000  0.28309000  0.97751000  1.0
  O  O676  1  0.60129000  0.33670000  0.91632000  1.0
  O  O677  1  0.69342000  0.27562000  0.91334000  1.0
  O  O678  1  0.40627000  0.27462000  0.96264000  1.0
  O  O679  1  0.29024000  0.27407000  0.91545000  1.0
  O  O680  1  0.38310000  0.13282000  0.50398000  1.0
  O  O681  1  0.19527000  0.13872000  0.48534000  1.0
  O  O682  1  0.28042000  0.21102000  0.42854000  1.0
  O  O683  1  0.42702000  0.16002000  0.39994000  1.0
  O  O684  1  0.57113000  0.09445000  0.55589000  1.0
  O  O685  1  0.71524000  0.12091000  0.51441000  1.0
  O  O686  1  0.97434000  0.09377000  0.55035000  1.0
  O  O687  1  0.87005000  0.15215000  0.57835000  1.0
  O  O688  1  0.78983000  0.19167000  0.42347000  1.0
  O  O689  1  0.86709000  0.25056000  0.42086000  1.0
  O  O690  1  0.63099000  0.22484000  0.50778000  1.0
  O  O691  1  0.82480000  0.21691000  0.52249000  1.0
  O  O692  1  0.35431000  0.16330000  0.58368000  1.0
  O  O693  1  0.38238000  0.22438000  0.58666000  1.0
  O  O694  1  0.14353000  0.22538000  0.53736000  1.0
  O  O695  1  0.97976000  0.22593000  0.58455000  1.0
  O  O696  1  0.51592000  0.00398000  0.86718000  1.0
  O  O697  1  0.33399000  0.98534000  0.86128000  1.0
  O  O698  1  0.49144000  0.92854000  0.78898000  1.0
  O  O699  1  0.58704000  0.89994000  0.83998000  1.0
  O  O700  1  0.66558000  0.05589000  0.90555000  1.0
  O  O701  1  0.83615000  0.01441000  0.87909000  1.0
  O  O702  1  0.06811000  0.05035000  0.90623000  1.0
  O  O703  1  0.02220000  0.07835000  0.84785000  1.0
  O  O704  1  0.98150000  0.92347000  0.80833000  1.0
  O  O705  1  0.11765000  0.92086000  0.74944000  1.0
  O  O706  1  0.85583000  0.00778000  0.77516000  1.0
  O  O707  1  0.04171000  0.02249000  0.78309000  1.0
  O  O708  1  0.51761000  0.08368000  0.83670000  1.0
  O  O709  1  0.60676000  0.08666000  0.77562000  1.0
  O  O710  1  0.36891000  0.03736000  0.77462000  1.0
  O  O711  1  0.20569000  0.08455000  0.77407000  1.0
  O  O712  1  0.88708000  0.49602000  0.63282000  1.0
  O  O713  1  0.68061000  0.51466000  0.63872000  1.0
  O  O714  1  0.70896000  0.57146000  0.71102000  1.0
  O  O715  1  0.82696000  0.60006000  0.66002000  1.0
  O  O716  1  0.12702000  0.44411000  0.59445000  1.0
  O  O717  1  0.22965000  0.48559000  0.62091000  1.0
  O  O718  1  0.52469000  0.44965000  0.59377000  1.0
  O  O719  1  0.44840000  0.42165000  0.65215000  1.0
  O  O720  1  0.21330000  0.57653000  0.69167000  1.0
  O  O721  1  0.28795000  0.57914000  0.75056000  1.0
  O  O722  1  0.13877000  0.49222000  0.72484000  1.0
  O  O723  1  0.34729000  0.47751000  0.71691000  1.0
  O  O724  1  0.93799000  0.41632000  0.66330000  1.0
  O  O725  1  0.96904000  0.41334000  0.72438000  1.0
  O  O726  1  0.68089000  0.46264000  0.72538000  1.0
  O  O727  1  0.56431000  0.41545000  0.72593000  1.0
  O  O728  1  0.48010000  0.63282000  0.00398000  1.0
  O  O729  1  0.68067000  0.63872000  0.98534000  1.0
  O  O730  1  0.58002000  0.71102000  0.92854000  1.0
  O  O731  1  0.51302000  0.66002000  0.89994000  1.0
  O  O732  1  0.27853000  0.59445000  0.05589000  1.0
  O  O733  1  0.14944000  0.62091000  0.01441000  1.0
  O  O734  1  0.88154000  0.59377000  0.05035000  1.0
  O  O735  1  0.89945000  0.65215000  0.07835000  1.0
  O  O736  1  0.09503000  0.69167000  0.92347000  1.0
  O  O737  1  0.96149000  0.75056000  0.92086000  1.0
  O  O738  1  0.13639000  0.72484000  0.00778000  1.0
  O  O739  1  0.93580000  0.71691000  0.02249000  1.0
  O  O740  1  0.39871000  0.66330000  0.08368000  1.0
  O  O741  1  0.30658000  0.72438000  0.08666000  1.0
  O  O742  1  0.59373000  0.72538000  0.03736000  1.0
  O  O743  1  0.70976000  0.72593000  0.08455000  1.0
  O  O744  1  0.61690000  0.86718000  0.49602000  1.0
  O  O745  1  0.80473000  0.86128000  0.51466000  1.0
  O  O746  1  0.71958000  0.78898000  0.57146000  1.0
  O  O747  1  0.57298000  0.83998000  0.60006000  1.0
  O  O748  1  0.42887000  0.90555000  0.44411000  1.0
  O  O749  1  0.28476000  0.87909000  0.48559000  1.0
  O  O750  1  0.02566000  0.90623000  0.44965000  1.0
  O  O751  1  0.12995000  0.84785000  0.42165000  1.0
  O  O752  1  0.21017000  0.80833000  0.57653000  1.0
  O  O753  1  0.13291000  0.74944000  0.57914000  1.0
  O  O754  1  0.36901000  0.77516000  0.49222000  1.0
  O  O755  1  0.17520000  0.78309000  0.47751000  1.0
  O  O756  1  0.64569000  0.83670000  0.41632000  1.0
  O  O757  1  0.61762000  0.77562000  0.41334000  1.0
  O  O758  1  0.85647000  0.77462000  0.46264000  1.0
  O  O759  1  0.02024000  0.77407000  0.41545000  1.0
  O  O760  1  0.48408000  0.99602000  0.13282000  1.0
  O  O761  1  0.66601000  0.01466000  0.13872000  1.0
  O  O762  1  0.50856000  0.07146000  0.21102000  1.0
  O  O763  1  0.41296000  0.10006000  0.16002000  1.0
  O  O764  1  0.33442000  0.94411000  0.09445000  1.0
  O  O765  1  0.16385000  0.98559000  0.12091000  1.0
  O  O766  1  0.93189000  0.94965000  0.09377000  1.0
  O  O767  1  0.97780000  0.92165000  0.15215000  1.0
  O  O768  1  0.01850000  0.07653000  0.19167000  1.0
  O  O769  1  0.88235000  0.07914000  0.25056000  1.0
  O  O770  1  0.14417000  0.99222000  0.22484000  1.0
  O  O771  1  0.95829000  0.97751000  0.21691000  1.0
  O  O772  1  0.48239000  0.91632000  0.16330000  1.0
  O  O773  1  0.39324000  0.91334000  0.22438000  1.0
  O  O774  1  0.63109000  0.96264000  0.22538000  1.0
  O  O775  1  0.79431000  0.91545000  0.22593000  1.0
  O  O776  1  0.11292000  0.50398000  0.36718000  1.0
  O  O777  1  0.31939000  0.48534000  0.36128000  1.0
  O  O778  1  0.29104000  0.42854000  0.28898000  1.0
  O  O779  1  0.17304000  0.39994000  0.33998000  1.0
  O  O780  1  0.87298000  0.55589000  0.40555000  1.0
  O  O781  1  0.77035000  0.51441000  0.37909000  1.0
  O  O782  1  0.47531000  0.55035000  0.40623000  1.0
  O  O783  1  0.55160000  0.57835000  0.34785000  1.0
  O  O784  1  0.78670000  0.42347000  0.30833000  1.0
  O  O785  1  0.71205000  0.42086000  0.24944000  1.0
  O  O786  1  0.86123000  0.50778000  0.27516000  1.0
  O  O787  1  0.65271000  0.52249000  0.28309000  1.0
  O  O788  1  0.06201000  0.58368000  0.33670000  1.0
  O  O789  1  0.03096000  0.58666000  0.27562000  1.0
  O  O790  1  0.31911000  0.53736000  0.27462000  1.0
  O  O791  1  0.43569000  0.58455000  0.27407000  1.0
