# generated using pymatgen
data_AgH4C6NO2
_symmetry_space_group_name_H-M   'P 1'
_cell_length_a   14.23270000
_cell_length_b   23.82800000
_cell_length_c   30.74900000
_cell_angle_alpha   90.00000000
_cell_angle_beta   90.00000000
_cell_angle_gamma   90.00000000
_symmetry_Int_Tables_number   1
_chemical_formula_structural   AgH4C6NO2
_chemical_formula_sum   'Ag64 H256 C384 N64 O128'
_cell_volume   10428.11671292
_cell_formula_units_Z   64
loop_
 _symmetry_equiv_pos_site_id
 _symmetry_equiv_pos_as_xyz
  1  'x, y, z'
loop_
 _atom_site_type_symbol
 _atom_site_label
 _atom_site_symmetry_multiplicity
 _atom_site_fract_x
 _atom_site_fract_y
 _atom_site_fract_z
 _atom_site_occupancy
  Ag  Ag0  1  0.30040000  0.93458000  0.01933000  1.0
  Ag  Ag1  1  0.14867000  0.76627000  0.21115000  1.0
  Ag  Ag2  1  0.08686000  0.72192000  0.28924000  1.0
  Ag  Ag3  1  0.97728000  0.55544000  0.48556000  1.0
  Ag  Ag4  1  0.99913000  0.43976000  0.02926000  1.0
  Ag  Ag5  1  0.25171000  0.04849000  0.49359000  1.0
  Ag  Ag6  1  0.88801000  0.73915000  0.78330000  1.0
  Ag  Ag7  1  0.84152000  0.77754000  0.70019000  1.0
  Ag  Ag8  1  0.19960000  0.56542000  0.01933000  1.0
  Ag  Ag9  1  0.35133000  0.73373000  0.21115000  1.0
  Ag  Ag10  1  0.41314000  0.77808000  0.28924000  1.0
  Ag  Ag11  1  0.52272000  0.94456000  0.48556000  1.0
  Ag  Ag12  1  0.50087000  0.06024000  0.02926000  1.0
  Ag  Ag13  1  0.24829000  0.45151000  0.49359000  1.0
  Ag  Ag14  1  0.61199000  0.76085000  0.78330000  1.0
  Ag  Ag15  1  0.65848000  0.72246000  0.70019000  1.0
  Ag  Ag16  1  0.69960000  0.43458000  0.48067000  1.0
  Ag  Ag17  1  0.85133000  0.26627000  0.28885000  1.0
  Ag  Ag18  1  0.91314000  0.22192000  0.21076000  1.0
  Ag  Ag19  1  0.02272000  0.05544000  0.01444000  1.0
  Ag  Ag20  1  0.00087000  0.93976000  0.47074000  1.0
  Ag  Ag21  1  0.74829000  0.54849000  0.00641000  1.0
  Ag  Ag22  1  0.11199000  0.23915000  0.71670000  1.0
  Ag  Ag23  1  0.15848000  0.27754000  0.79981000  1.0
  Ag  Ag24  1  0.80040000  0.06542000  0.48067000  1.0
  Ag  Ag25  1  0.64867000  0.23373000  0.28885000  1.0
  Ag  Ag26  1  0.58686000  0.27808000  0.21076000  1.0
  Ag  Ag27  1  0.47728000  0.44456000  0.01444000  1.0
  Ag  Ag28  1  0.49913000  0.56024000  0.47074000  1.0
  Ag  Ag29  1  0.75171000  0.95151000  0.00641000  1.0
  Ag  Ag30  1  0.38801000  0.26085000  0.71670000  1.0
  Ag  Ag31  1  0.34152000  0.22246000  0.79981000  1.0
  Ag  Ag32  1  0.69960000  0.06542000  0.98067000  1.0
  Ag  Ag33  1  0.85133000  0.23373000  0.78885000  1.0
  Ag  Ag34  1  0.91314000  0.27808000  0.71076000  1.0
  Ag  Ag35  1  0.02272000  0.44456000  0.51444000  1.0
  Ag  Ag36  1  0.00087000  0.56024000  0.97074000  1.0
  Ag  Ag37  1  0.74829000  0.95151000  0.50641000  1.0
  Ag  Ag38  1  0.11199000  0.26085000  0.21670000  1.0
  Ag  Ag39  1  0.15848000  0.22246000  0.29981000  1.0
  Ag  Ag40  1  0.80040000  0.43458000  0.98067000  1.0
  Ag  Ag41  1  0.64867000  0.26627000  0.78885000  1.0
  Ag  Ag42  1  0.58686000  0.22192000  0.71076000  1.0
  Ag  Ag43  1  0.47728000  0.05544000  0.51444000  1.0
  Ag  Ag44  1  0.49913000  0.93976000  0.97074000  1.0
  Ag  Ag45  1  0.75171000  0.54849000  0.50641000  1.0
  Ag  Ag46  1  0.38801000  0.23915000  0.21670000  1.0
  Ag  Ag47  1  0.34152000  0.27754000  0.29981000  1.0
  Ag  Ag48  1  0.30040000  0.56542000  0.51933000  1.0
  Ag  Ag49  1  0.14867000  0.73373000  0.71115000  1.0
  Ag  Ag50  1  0.08686000  0.77808000  0.78924000  1.0
  Ag  Ag51  1  0.97728000  0.94456000  0.98556000  1.0
  Ag  Ag52  1  0.99913000  0.06024000  0.52926000  1.0
  Ag  Ag53  1  0.25171000  0.45151000  0.99359000  1.0
  Ag  Ag54  1  0.88801000  0.76085000  0.28330000  1.0
  Ag  Ag55  1  0.84152000  0.72246000  0.20019000  1.0
  Ag  Ag56  1  0.19960000  0.93458000  0.51933000  1.0
  Ag  Ag57  1  0.35133000  0.76627000  0.71115000  1.0
  Ag  Ag58  1  0.41314000  0.72192000  0.78924000  1.0
  Ag  Ag59  1  0.52272000  0.55544000  0.98556000  1.0
  Ag  Ag60  1  0.50087000  0.43976000  0.52926000  1.0
  Ag  Ag61  1  0.24829000  0.04849000  0.99359000  1.0
  Ag  Ag62  1  0.61199000  0.73915000  0.28330000  1.0
  Ag  Ag63  1  0.65848000  0.77754000  0.20019000  1.0
  H  H64  1  0.30750000  0.91950000  0.11590000  1.0
  H  H65  1  0.17740000  0.81270000  0.04110000  1.0
  H  H66  1  0.26070000  0.87010000  0.17680000  1.0
  H  H67  1  0.12840000  0.76380000  0.10040000  1.0
  H  H68  1  0.91720000  0.57180000  0.23040000  1.0
  H  H69  1  0.03200000  0.63840000  0.12020000  1.0
  H  H70  1  0.32050000  0.90820000  0.26330000  1.0
  H  H71  1  0.20240000  0.86140000  0.37610000  1.0
  H  H72  1  0.84810000  0.50250000  0.18710000  1.0
  H  H73  1  0.40450000  0.98110000  0.29760000  1.0
  H  H74  1  0.96210000  0.62690000  0.32990000  1.0
  H  H75  1  0.12520000  0.72930000  0.39730000  1.0
  H  H76  1  0.86440000  0.50170000  0.11310000  1.0
  H  H77  1  0.38110000  0.99460000  0.37390000  1.0
  H  H78  1  0.91420000  0.58350000  0.39370000  1.0
  H  H79  1  0.08730000  0.68130000  0.45990000  1.0
  H  H80  1  0.13230000  0.49750000  0.63890000  1.0
  H  H81  1  0.96790000  0.63330000  0.62450000  1.0
  H  H82  1  0.91990000  0.68580000  0.95360000  1.0
  H  H83  1  0.03780000  0.57860000  0.87460000  1.0
  H  H84  1  0.14090000  0.51240000  0.71310000  1.0
  H  H85  1  0.86650000  0.73790000  0.89400000  1.0
  H  H86  1  0.00670000  0.63710000  0.81620000  1.0
  H  H87  1  0.06500000  0.58830000  0.74410000  1.0
  H  H88  1  0.86150000  0.76660000  0.59060000  1.0
  H  H89  1  0.71680000  0.87640000  0.66090000  1.0
  H  H90  1  0.83640000  0.81900000  0.52970000  1.0
  H  H91  1  0.68670000  0.92490000  0.59830000  1.0
  H  H92  1  0.76980000  0.87630000  0.86210000  1.0
  H  H93  1  0.67510000  0.93030000  0.74660000  1.0
  H  H94  1  0.59180000  0.00370000  0.78140000  1.0
  H  H95  1  0.60310000  0.01390000  0.85550000  1.0
  H  H96  1  0.19250000  0.58050000  0.11590000  1.0
  H  H97  1  0.32260000  0.68730000  0.04110000  1.0
  H  H98  1  0.23930000  0.62990000  0.17680000  1.0
  H  H99  1  0.37160000  0.73620000  0.10040000  1.0
  H  H100  1  0.58280000  0.92820000  0.23040000  1.0
  H  H101  1  0.46800000  0.86160000  0.12020000  1.0
  H  H102  1  0.17950000  0.59180000  0.26330000  1.0
  H  H103  1  0.29760000  0.63860000  0.37610000  1.0
  H  H104  1  0.65190000  0.99750000  0.18710000  1.0
  H  H105  1  0.09550000  0.51890000  0.29760000  1.0
  H  H106  1  0.53790000  0.87310000  0.32990000  1.0
  H  H107  1  0.37480000  0.77070000  0.39730000  1.0
  H  H108  1  0.63560000  0.99830000  0.11310000  1.0
  H  H109  1  0.11890000  0.50540000  0.37390000  1.0
  H  H110  1  0.58580000  0.91650000  0.39370000  1.0
  H  H111  1  0.41270000  0.81870000  0.45990000  1.0
  H  H112  1  0.36770000  0.00250000  0.63890000  1.0
  H  H113  1  0.53210000  0.86670000  0.62450000  1.0
  H  H114  1  0.58010000  0.81420000  0.95360000  1.0
  H  H115  1  0.46220000  0.92140000  0.87460000  1.0
  H  H116  1  0.35910000  0.98760000  0.71310000  1.0
  H  H117  1  0.63350000  0.76210000  0.89400000  1.0
  H  H118  1  0.49330000  0.86290000  0.81620000  1.0
  H  H119  1  0.43500000  0.91170000  0.74410000  1.0
  H  H120  1  0.63850000  0.73340000  0.59060000  1.0
  H  H121  1  0.78320000  0.62360000  0.66090000  1.0
  H  H122  1  0.66360000  0.68100000  0.52970000  1.0
  H  H123  1  0.81330000  0.57510000  0.59830000  1.0
  H  H124  1  0.73020000  0.62370000  0.86210000  1.0
  H  H125  1  0.82490000  0.56970000  0.74660000  1.0
  H  H126  1  0.90820000  0.49630000  0.78140000  1.0
  H  H127  1  0.89690000  0.48610000  0.85550000  1.0
  H  H128  1  0.69250000  0.41950000  0.38410000  1.0
  H  H129  1  0.82260000  0.31270000  0.45890000  1.0
  H  H130  1  0.73930000  0.37010000  0.32320000  1.0
  H  H131  1  0.87160000  0.26380000  0.39960000  1.0
  H  H132  1  0.08280000  0.07180000  0.26960000  1.0
  H  H133  1  0.96800000  0.13840000  0.37980000  1.0
  H  H134  1  0.67950000  0.40820000  0.23670000  1.0
  H  H135  1  0.79760000  0.36140000  0.12390000  1.0
  H  H136  1  0.15190000  0.00250000  0.31290000  1.0
  H  H137  1  0.59550000  0.48110000  0.20240000  1.0
  H  H138  1  0.03790000  0.12690000  0.17010000  1.0
  H  H139  1  0.87480000  0.22930000  0.10270000  1.0
  H  H140  1  0.13560000  0.00170000  0.38690000  1.0
  H  H141  1  0.61890000  0.49460000  0.12610000  1.0
  H  H142  1  0.08580000  0.08350000  0.10630000  1.0
  H  H143  1  0.91270000  0.18130000  0.04010000  1.0
  H  H144  1  0.86770000  0.99750000  0.86110000  1.0
  H  H145  1  0.03210000  0.13330000  0.87550000  1.0
  H  H146  1  0.08010000  0.18580000  0.54640000  1.0
  H  H147  1  0.96220000  0.07860000  0.62540000  1.0
  H  H148  1  0.85910000  0.01240000  0.78690000  1.0
  H  H149  1  0.13350000  0.23790000  0.60600000  1.0
  H  H150  1  0.99330000  0.13710000  0.68380000  1.0
  H  H151  1  0.93500000  0.08830000  0.75590000  1.0
  H  H152  1  0.13850000  0.26660000  0.90940000  1.0
  H  H153  1  0.28320000  0.37640000  0.83910000  1.0
  H  H154  1  0.16360000  0.31900000  0.97030000  1.0
  H  H155  1  0.31330000  0.42490000  0.90170000  1.0
  H  H156  1  0.23020000  0.37630000  0.63790000  1.0
  H  H157  1  0.32490000  0.43030000  0.75340000  1.0
  H  H158  1  0.40820000  0.50370000  0.71860000  1.0
  H  H159  1  0.39690000  0.51390000  0.64450000  1.0
  H  H160  1  0.80750000  0.08050000  0.38410000  1.0
  H  H161  1  0.67740000  0.18730000  0.45890000  1.0
  H  H162  1  0.76070000  0.12990000  0.32320000  1.0
  H  H163  1  0.62840000  0.23620000  0.39960000  1.0
  H  H164  1  0.41720000  0.42820000  0.26960000  1.0
  H  H165  1  0.53200000  0.36160000  0.37980000  1.0
  H  H166  1  0.82050000  0.09180000  0.23670000  1.0
  H  H167  1  0.70240000  0.13860000  0.12390000  1.0
  H  H168  1  0.34810000  0.49750000  0.31290000  1.0
  H  H169  1  0.90450000  0.01890000  0.20240000  1.0
  H  H170  1  0.46210000  0.37310000  0.17010000  1.0
  H  H171  1  0.62520000  0.27070000  0.10270000  1.0
  H  H172  1  0.36440000  0.49830000  0.38690000  1.0
  H  H173  1  0.88110000  0.00540000  0.12610000  1.0
  H  H174  1  0.41420000  0.41650000  0.10630000  1.0
  H  H175  1  0.58730000  0.31870000  0.04010000  1.0
  H  H176  1  0.63230000  0.50250000  0.86110000  1.0
  H  H177  1  0.46790000  0.36670000  0.87550000  1.0
  H  H178  1  0.41990000  0.31420000  0.54640000  1.0
  H  H179  1  0.53780000  0.42140000  0.62540000  1.0
  H  H180  1  0.64090000  0.48760000  0.78690000  1.0
  H  H181  1  0.36650000  0.26210000  0.60600000  1.0
  H  H182  1  0.50670000  0.36290000  0.68380000  1.0
  H  H183  1  0.56500000  0.41170000  0.75590000  1.0
  H  H184  1  0.36150000  0.23340000  0.90940000  1.0
  H  H185  1  0.21680000  0.12360000  0.83910000  1.0
  H  H186  1  0.33640000  0.18100000  0.97030000  1.0
  H  H187  1  0.18670000  0.07510000  0.90170000  1.0
  H  H188  1  0.26980000  0.12370000  0.63790000  1.0
  H  H189  1  0.17510000  0.06970000  0.75340000  1.0
  H  H190  1  0.09180000  0.99630000  0.71860000  1.0
  H  H191  1  0.10310000  0.98610000  0.64450000  1.0
  H  H192  1  0.69250000  0.08050000  0.88410000  1.0
  H  H193  1  0.82260000  0.18730000  0.95890000  1.0
  H  H194  1  0.73930000  0.12990000  0.82320000  1.0
  H  H195  1  0.87160000  0.23620000  0.89960000  1.0
  H  H196  1  0.08280000  0.42820000  0.76960000  1.0
  H  H197  1  0.96800000  0.36160000  0.87980000  1.0
  H  H198  1  0.67950000  0.09180000  0.73670000  1.0
  H  H199  1  0.79760000  0.13860000  0.62390000  1.0
  H  H200  1  0.15190000  0.49750000  0.81290000  1.0
  H  H201  1  0.59550000  0.01890000  0.70240000  1.0
  H  H202  1  0.03790000  0.37310000  0.67010000  1.0
  H  H203  1  0.87480000  0.27070000  0.60270000  1.0
  H  H204  1  0.13560000  0.49830000  0.88690000  1.0
  H  H205  1  0.61890000  0.00540000  0.62610000  1.0
  H  H206  1  0.08580000  0.41650000  0.60630000  1.0
  H  H207  1  0.91270000  0.31870000  0.54010000  1.0
  H  H208  1  0.86770000  0.50250000  0.36110000  1.0
  H  H209  1  0.03210000  0.36670000  0.37550000  1.0
  H  H210  1  0.08010000  0.31420000  0.04640000  1.0
  H  H211  1  0.96220000  0.42140000  0.12540000  1.0
  H  H212  1  0.85910000  0.48760000  0.28690000  1.0
  H  H213  1  0.13350000  0.26210000  0.10600000  1.0
  H  H214  1  0.99330000  0.36290000  0.18380000  1.0
  H  H215  1  0.93500000  0.41170000  0.25590000  1.0
  H  H216  1  0.13850000  0.23340000  0.40940000  1.0
  H  H217  1  0.28320000  0.12360000  0.33910000  1.0
  H  H218  1  0.16360000  0.18100000  0.47030000  1.0
  H  H219  1  0.31330000  0.07510000  0.40170000  1.0
  H  H220  1  0.23020000  0.12370000  0.13790000  1.0
  H  H221  1  0.32490000  0.06970000  0.25340000  1.0
  H  H222  1  0.40820000  0.99630000  0.21860000  1.0
  H  H223  1  0.39690000  0.98610000  0.14450000  1.0
  H  H224  1  0.80750000  0.41950000  0.88410000  1.0
  H  H225  1  0.67740000  0.31270000  0.95890000  1.0
  H  H226  1  0.76070000  0.37010000  0.82320000  1.0
  H  H227  1  0.62840000  0.26380000  0.89960000  1.0
  H  H228  1  0.41720000  0.07180000  0.76960000  1.0
  H  H229  1  0.53200000  0.13840000  0.87980000  1.0
  H  H230  1  0.82050000  0.40820000  0.73670000  1.0
  H  H231  1  0.70240000  0.36140000  0.62390000  1.0
  H  H232  1  0.34810000  0.00250000  0.81290000  1.0
  H  H233  1  0.90450000  0.48110000  0.70240000  1.0
  H  H234  1  0.46210000  0.12690000  0.67010000  1.0
  H  H235  1  0.62520000  0.22930000  0.60270000  1.0
  H  H236  1  0.36440000  0.00170000  0.88690000  1.0
  H  H237  1  0.88110000  0.49460000  0.62610000  1.0
  H  H238  1  0.41420000  0.08350000  0.60630000  1.0
  H  H239  1  0.58730000  0.18130000  0.54010000  1.0
  H  H240  1  0.63230000  0.99750000  0.36110000  1.0
  H  H241  1  0.46790000  0.13330000  0.37550000  1.0
  H  H242  1  0.41990000  0.18580000  0.04640000  1.0
  H  H243  1  0.53780000  0.07860000  0.12540000  1.0
  H  H244  1  0.64090000  0.01240000  0.28690000  1.0
  H  H245  1  0.36650000  0.23790000  0.10600000  1.0
  H  H246  1  0.50670000  0.13710000  0.18380000  1.0
  H  H247  1  0.56500000  0.08830000  0.25590000  1.0
  H  H248  1  0.36150000  0.26660000  0.40940000  1.0
  H  H249  1  0.21680000  0.37640000  0.33910000  1.0
  H  H250  1  0.33640000  0.31900000  0.47030000  1.0
  H  H251  1  0.18670000  0.42490000  0.40170000  1.0
  H  H252  1  0.26980000  0.37630000  0.13790000  1.0
  H  H253  1  0.17510000  0.43030000  0.25340000  1.0
  H  H254  1  0.09180000  0.50370000  0.21860000  1.0
  H  H255  1  0.10310000  0.51390000  0.14450000  1.0
  H  H256  1  0.30750000  0.58050000  0.61590000  1.0
  H  H257  1  0.17740000  0.68730000  0.54110000  1.0
  H  H258  1  0.26070000  0.62990000  0.67680000  1.0
  H  H259  1  0.12840000  0.73620000  0.60040000  1.0
  H  H260  1  0.91720000  0.92820000  0.73040000  1.0
  H  H261  1  0.03200000  0.86160000  0.62020000  1.0
  H  H262  1  0.32050000  0.59180000  0.76330000  1.0
  H  H263  1  0.20240000  0.63860000  0.87610000  1.0
  H  H264  1  0.84810000  0.99750000  0.68710000  1.0
  H  H265  1  0.40450000  0.51890000  0.79760000  1.0
  H  H266  1  0.96210000  0.87310000  0.82990000  1.0
  H  H267  1  0.12520000  0.77070000  0.89730000  1.0
  H  H268  1  0.86440000  0.99830000  0.61310000  1.0
  H  H269  1  0.38110000  0.50540000  0.87390000  1.0
  H  H270  1  0.91420000  0.91650000  0.89370000  1.0
  H  H271  1  0.08730000  0.81870000  0.95990000  1.0
  H  H272  1  0.13230000  0.00250000  0.13890000  1.0
  H  H273  1  0.96790000  0.86670000  0.12450000  1.0
  H  H274  1  0.91990000  0.81420000  0.45360000  1.0
  H  H275  1  0.03780000  0.92140000  0.37460000  1.0
  H  H276  1  0.14090000  0.98760000  0.21310000  1.0
  H  H277  1  0.86650000  0.76210000  0.39400000  1.0
  H  H278  1  0.00670000  0.86290000  0.31620000  1.0
  H  H279  1  0.06500000  0.91170000  0.24410000  1.0
  H  H280  1  0.86150000  0.73340000  0.09060000  1.0
  H  H281  1  0.71680000  0.62360000  0.16090000  1.0
  H  H282  1  0.83640000  0.68100000  0.02970000  1.0
  H  H283  1  0.68670000  0.57510000  0.09830000  1.0
  H  H284  1  0.76980000  0.62370000  0.36210000  1.0
  H  H285  1  0.67510000  0.56970000  0.24660000  1.0
  H  H286  1  0.59180000  0.49630000  0.28140000  1.0
  H  H287  1  0.60310000  0.48610000  0.35550000  1.0
  H  H288  1  0.19250000  0.91950000  0.61590000  1.0
  H  H289  1  0.32260000  0.81270000  0.54110000  1.0
  H  H290  1  0.23930000  0.87010000  0.67680000  1.0
  H  H291  1  0.37160000  0.76380000  0.60040000  1.0
  H  H292  1  0.58280000  0.57180000  0.73040000  1.0
  H  H293  1  0.46800000  0.63840000  0.62020000  1.0
  H  H294  1  0.17950000  0.90820000  0.76330000  1.0
  H  H295  1  0.29760000  0.86140000  0.87610000  1.0
  H  H296  1  0.65190000  0.50250000  0.68710000  1.0
  H  H297  1  0.09550000  0.98110000  0.79760000  1.0
  H  H298  1  0.53790000  0.62690000  0.82990000  1.0
  H  H299  1  0.37480000  0.72930000  0.89730000  1.0
  H  H300  1  0.63560000  0.50170000  0.61310000  1.0
  H  H301  1  0.11890000  0.99460000  0.87390000  1.0
  H  H302  1  0.58580000  0.58350000  0.89370000  1.0
  H  H303  1  0.41270000  0.68130000  0.95990000  1.0
  H  H304  1  0.36770000  0.49750000  0.13890000  1.0
  H  H305  1  0.53210000  0.63330000  0.12450000  1.0
  H  H306  1  0.58010000  0.68580000  0.45360000  1.0
  H  H307  1  0.46220000  0.57860000  0.37460000  1.0
  H  H308  1  0.35910000  0.51240000  0.21310000  1.0
  H  H309  1  0.63350000  0.73790000  0.39400000  1.0
  H  H310  1  0.49330000  0.63710000  0.31620000  1.0
  H  H311  1  0.43500000  0.58830000  0.24410000  1.0
  H  H312  1  0.63850000  0.76660000  0.09060000  1.0
  H  H313  1  0.78320000  0.87640000  0.16090000  1.0
  H  H314  1  0.66360000  0.81900000  0.02970000  1.0
  H  H315  1  0.81330000  0.92490000  0.09830000  1.0
  H  H316  1  0.73020000  0.87630000  0.36210000  1.0
  H  H317  1  0.82490000  0.93030000  0.24660000  1.0
  H  H318  1  0.90820000  0.00370000  0.28140000  1.0
  H  H319  1  0.89690000  0.01390000  0.35550000  1.0
  C  C320  1  0.26870000  0.88740000  0.11220000  1.0
  C  C321  1  0.19390000  0.82630000  0.06910000  1.0
  C  C322  1  0.24230000  0.85750000  0.14880000  1.0
  C  C323  1  0.16630000  0.79620000  0.10470000  1.0
  C  C324  1  0.02830000  0.65860000  0.20550000  1.0
  C  C325  1  0.20830000  0.82970000  0.29350000  1.0
  C  C326  1  0.98560000  0.61270000  0.17940000  1.0
  C  C327  1  0.25940000  0.87910000  0.31660000  1.0
  C  C328  1  0.92720000  0.57140000  0.19980000  1.0
  C  C329  1  0.99530000  0.61070000  0.13450000  1.0
  C  C330  1  0.31450000  0.91360000  0.29380000  1.0
  C  C331  1  0.24310000  0.88600000  0.36080000  1.0
  C  C332  1  0.88540000  0.53060000  0.17360000  1.0
  C  C333  1  0.95310000  0.56940000  0.11030000  1.0
  C  C334  1  0.36340000  0.95750000  0.31360000  1.0
  C  C335  1  0.28880000  0.93080000  0.38220000  1.0
  C  C336  1  0.98730000  0.63970000  0.35670000  1.0
  C  C337  1  0.08320000  0.69840000  0.39580000  1.0
  C  C338  1  0.89560000  0.52930000  0.13010000  1.0
  C  C339  1  0.96890000  0.56630000  0.06280000  1.0
  C  C340  1  0.34890000  0.96520000  0.35920000  1.0
  C  C341  1  0.27200000  0.94140000  0.42980000  1.0
  C  C342  1  0.96100000  0.61190000  0.39460000  1.0
  C  C343  1  0.06080000  0.66970000  0.43300000  1.0
  C  C344  1  0.03950000  0.55100000  0.57680000  1.0
  C  C345  1  0.04730000  0.56350000  0.62500000  1.0
  C  C346  1  0.09980000  0.52830000  0.65140000  1.0
  C  C347  1  0.00250000  0.60860000  0.64280000  1.0
  C  C348  1  0.93540000  0.67400000  0.92500000  1.0
  C  C349  1  0.00620000  0.61310000  0.87960000  1.0
  C  C350  1  0.10550000  0.53730000  0.69540000  1.0
  C  C351  1  0.00670000  0.61890000  0.68710000  1.0
  C  C352  1  0.90650000  0.70660000  0.88950000  1.0
  C  C353  1  0.98470000  0.64750000  0.84430000  1.0
  C  C354  1  0.06050000  0.58190000  0.71360000  1.0
  C  C355  1  0.95680000  0.66920000  0.70590000  1.0
  C  C356  1  0.77400000  0.84660000  0.78000000  1.0
  C  C357  1  0.82690000  0.80050000  0.59310000  1.0
  C  C358  1  0.74210000  0.86370000  0.63410000  1.0
  C  C359  1  0.72590000  0.89690000  0.80160000  1.0
  C  C360  1  0.81040000  0.83090000  0.55660000  1.0
  C  C361  1  0.72480000  0.89230000  0.59670000  1.0
  C  C362  1  0.73390000  0.90260000  0.84580000  1.0
  C  C363  1  0.67700000  0.93400000  0.77740000  1.0
  C  C364  1  0.68930000  0.94710000  0.86710000  1.0
  C  C365  1  0.62860000  0.97830000  0.79790000  1.0
  C  C366  1  0.69940000  0.95690000  0.91520000  1.0
  C  C367  1  0.63560000  0.98400000  0.84170000  1.0
  C  C368  1  0.23130000  0.61260000  0.11220000  1.0
  C  C369  1  0.30610000  0.67370000  0.06910000  1.0
  C  C370  1  0.25770000  0.64250000  0.14880000  1.0
  C  C371  1  0.33370000  0.70380000  0.10470000  1.0
  C  C372  1  0.47170000  0.84140000  0.20550000  1.0
  C  C373  1  0.29170000  0.67030000  0.29350000  1.0
  C  C374  1  0.51440000  0.88730000  0.17940000  1.0
  C  C375  1  0.24060000  0.62090000  0.31660000  1.0
  C  C376  1  0.57280000  0.92860000  0.19980000  1.0
  C  C377  1  0.50470000  0.88930000  0.13450000  1.0
  C  C378  1  0.18550000  0.58640000  0.29380000  1.0
  C  C379  1  0.25690000  0.61400000  0.36080000  1.0
  C  C380  1  0.61460000  0.96940000  0.17360000  1.0
  C  C381  1  0.54690000  0.93060000  0.11030000  1.0
  C  C382  1  0.13660000  0.54250000  0.31360000  1.0
  C  C383  1  0.21120000  0.56920000  0.38220000  1.0
  C  C384  1  0.51270000  0.86030000  0.35670000  1.0
  C  C385  1  0.41680000  0.80160000  0.39580000  1.0
  C  C386  1  0.60440000  0.97070000  0.13010000  1.0
  C  C387  1  0.53110000  0.93370000  0.06280000  1.0
  C  C388  1  0.15110000  0.53480000  0.35920000  1.0
  C  C389  1  0.22800000  0.55860000  0.42980000  1.0
  C  C390  1  0.53900000  0.88810000  0.39460000  1.0
  C  C391  1  0.43920000  0.83030000  0.43300000  1.0
  C  C392  1  0.46050000  0.94900000  0.57680000  1.0
  C  C393  1  0.45270000  0.93650000  0.62500000  1.0
  C  C394  1  0.40020000  0.97170000  0.65140000  1.0
  C  C395  1  0.49750000  0.89140000  0.64280000  1.0
  C  C396  1  0.56460000  0.82600000  0.92500000  1.0
  C  C397  1  0.49380000  0.88690000  0.87960000  1.0
  C  C398  1  0.39450000  0.96270000  0.69540000  1.0
  C  C399  1  0.49330000  0.88110000  0.68710000  1.0
  C  C400  1  0.59350000  0.79340000  0.88950000  1.0
  C  C401  1  0.51530000  0.85250000  0.84430000  1.0
  C  C402  1  0.43950000  0.91810000  0.71360000  1.0
  C  C403  1  0.54320000  0.83080000  0.70590000  1.0
  C  C404  1  0.72600000  0.65340000  0.78000000  1.0
  C  C405  1  0.67310000  0.69950000  0.59310000  1.0
  C  C406  1  0.75790000  0.63630000  0.63410000  1.0
  C  C407  1  0.77410000  0.60310000  0.80160000  1.0
  C  C408  1  0.68960000  0.66910000  0.55660000  1.0
  C  C409  1  0.77520000  0.60770000  0.59670000  1.0
  C  C410  1  0.76610000  0.59740000  0.84580000  1.0
  C  C411  1  0.82300000  0.56600000  0.77740000  1.0
  C  C412  1  0.81070000  0.55290000  0.86710000  1.0
  C  C413  1  0.87140000  0.52170000  0.79790000  1.0
  C  C414  1  0.80060000  0.54310000  0.91520000  1.0
  C  C415  1  0.86440000  0.51600000  0.84170000  1.0
  C  C416  1  0.73130000  0.38740000  0.38780000  1.0
  C  C417  1  0.80610000  0.32630000  0.43090000  1.0
  C  C418  1  0.75770000  0.35750000  0.35120000  1.0
  C  C419  1  0.83370000  0.29620000  0.39530000  1.0
  C  C420  1  0.97170000  0.15860000  0.29450000  1.0
  C  C421  1  0.79170000  0.32970000  0.20650000  1.0
  C  C422  1  0.01440000  0.11270000  0.32060000  1.0
  C  C423  1  0.74060000  0.37910000  0.18340000  1.0
  C  C424  1  0.07280000  0.07140000  0.30020000  1.0
  C  C425  1  0.00470000  0.11070000  0.36550000  1.0
  C  C426  1  0.68550000  0.41360000  0.20620000  1.0
  C  C427  1  0.75690000  0.38600000  0.13920000  1.0
  C  C428  1  0.11460000  0.03060000  0.32640000  1.0
  C  C429  1  0.04690000  0.06940000  0.38970000  1.0
  C  C430  1  0.63660000  0.45750000  0.18640000  1.0
  C  C431  1  0.71120000  0.43080000  0.11780000  1.0
  C  C432  1  0.01270000  0.13970000  0.14330000  1.0
  C  C433  1  0.91680000  0.19840000  0.10420000  1.0
  C  C434  1  0.10440000  0.02930000  0.36990000  1.0
  C  C435  1  0.03110000  0.06630000  0.43720000  1.0
  C  C436  1  0.65110000  0.46520000  0.14080000  1.0
  C  C437  1  0.72800000  0.44140000  0.07020000  1.0
  C  C438  1  0.03900000  0.11190000  0.10540000  1.0
  C  C439  1  0.93920000  0.16970000  0.06700000  1.0
  C  C440  1  0.96050000  0.05100000  0.92320000  1.0
  C  C441  1  0.95270000  0.06350000  0.87500000  1.0
  C  C442  1  0.90020000  0.02830000  0.84860000  1.0
  C  C443  1  0.99750000  0.10860000  0.85720000  1.0
  C  C444  1  0.06460000  0.17400000  0.57500000  1.0
  C  C445  1  0.99380000  0.11310000  0.62040000  1.0
  C  C446  1  0.89450000  0.03730000  0.80460000  1.0
  C  C447  1  0.99330000  0.11890000  0.81290000  1.0
  C  C448  1  0.09350000  0.20660000  0.61050000  1.0
  C  C449  1  0.01530000  0.14750000  0.65570000  1.0
  C  C450  1  0.93950000  0.08190000  0.78640000  1.0
  C  C451  1  0.04320000  0.16920000  0.79410000  1.0
  C  C452  1  0.22600000  0.34660000  0.72000000  1.0
  C  C453  1  0.17310000  0.30050000  0.90690000  1.0
  C  C454  1  0.25790000  0.36370000  0.86590000  1.0
  C  C455  1  0.27410000  0.39690000  0.69840000  1.0
  C  C456  1  0.18960000  0.33090000  0.94340000  1.0
  C  C457  1  0.27520000  0.39230000  0.90330000  1.0
  C  C458  1  0.26610000  0.40260000  0.65420000  1.0
  C  C459  1  0.32300000  0.43400000  0.72260000  1.0
  C  C460  1  0.31070000  0.44710000  0.63290000  1.0
  C  C461  1  0.37140000  0.47830000  0.70210000  1.0
  C  C462  1  0.30060000  0.45690000  0.58480000  1.0
  C  C463  1  0.36440000  0.48400000  0.65830000  1.0
  C  C464  1  0.76870000  0.11260000  0.38780000  1.0
  C  C465  1  0.69390000  0.17370000  0.43090000  1.0
  C  C466  1  0.74230000  0.14250000  0.35120000  1.0
  C  C467  1  0.66630000  0.20380000  0.39530000  1.0
  C  C468  1  0.52830000  0.34140000  0.29450000  1.0
  C  C469  1  0.70830000  0.17030000  0.20650000  1.0
  C  C470  1  0.48560000  0.38730000  0.32060000  1.0
  C  C471  1  0.75940000  0.12090000  0.18340000  1.0
  C  C472  1  0.42720000  0.42860000  0.30020000  1.0
  C  C473  1  0.49530000  0.38930000  0.36550000  1.0
  C  C474  1  0.81450000  0.08640000  0.20620000  1.0
  C  C475  1  0.74310000  0.11400000  0.13920000  1.0
  C  C476  1  0.38540000  0.46940000  0.32640000  1.0
  C  C477  1  0.45310000  0.43060000  0.38970000  1.0
  C  C478  1  0.86340000  0.04250000  0.18640000  1.0
  C  C479  1  0.78880000  0.06920000  0.11780000  1.0
  C  C480  1  0.48730000  0.36030000  0.14330000  1.0
  C  C481  1  0.58320000  0.30160000  0.10420000  1.0
  C  C482  1  0.39560000  0.47070000  0.36990000  1.0
  C  C483  1  0.46890000  0.43370000  0.43720000  1.0
  C  C484  1  0.84890000  0.03480000  0.14080000  1.0
  C  C485  1  0.77200000  0.05860000  0.07020000  1.0
  C  C486  1  0.46100000  0.38810000  0.10540000  1.0
  C  C487  1  0.56080000  0.33030000  0.06700000  1.0
  C  C488  1  0.53950000  0.44900000  0.92320000  1.0
  C  C489  1  0.54730000  0.43650000  0.87500000  1.0
  C  C490  1  0.59980000  0.47170000  0.84860000  1.0
  C  C491  1  0.50250000  0.39140000  0.85720000  1.0
  C  C492  1  0.43540000  0.32600000  0.57500000  1.0
  C  C493  1  0.50620000  0.38690000  0.62040000  1.0
  C  C494  1  0.60550000  0.46270000  0.80460000  1.0
  C  C495  1  0.50670000  0.38110000  0.81290000  1.0
  C  C496  1  0.40650000  0.29340000  0.61050000  1.0
  C  C497  1  0.48470000  0.35250000  0.65570000  1.0
  C  C498  1  0.56050000  0.41810000  0.78640000  1.0
  C  C499  1  0.45680000  0.33080000  0.79410000  1.0
  C  C500  1  0.27400000  0.15340000  0.72000000  1.0
  C  C501  1  0.32690000  0.19950000  0.90690000  1.0
  C  C502  1  0.24210000  0.13630000  0.86590000  1.0
  C  C503  1  0.22590000  0.10310000  0.69840000  1.0
  C  C504  1  0.31040000  0.16910000  0.94340000  1.0
  C  C505  1  0.22480000  0.10770000  0.90330000  1.0
  C  C506  1  0.23390000  0.09740000  0.65420000  1.0
  C  C507  1  0.17700000  0.06600000  0.72260000  1.0
  C  C508  1  0.18930000  0.05290000  0.63290000  1.0
  C  C509  1  0.12860000  0.02170000  0.70210000  1.0
  C  C510  1  0.19940000  0.04310000  0.58480000  1.0
  C  C511  1  0.13560000  0.01600000  0.65830000  1.0
  C  C512  1  0.73130000  0.11260000  0.88780000  1.0
  C  C513  1  0.80610000  0.17370000  0.93090000  1.0
  C  C514  1  0.75770000  0.14250000  0.85120000  1.0
  C  C515  1  0.83370000  0.20380000  0.89530000  1.0
  C  C516  1  0.97170000  0.34140000  0.79450000  1.0
  C  C517  1  0.79170000  0.17030000  0.70650000  1.0
  C  C518  1  0.01440000  0.38730000  0.82060000  1.0
  C  C519  1  0.74060000  0.12090000  0.68340000  1.0
  C  C520  1  0.07280000  0.42860000  0.80020000  1.0
  C  C521  1  0.00470000  0.38930000  0.86550000  1.0
  C  C522  1  0.68550000  0.08640000  0.70620000  1.0
  C  C523  1  0.75690000  0.11400000  0.63920000  1.0
  C  C524  1  0.11460000  0.46940000  0.82640000  1.0
  C  C525  1  0.04690000  0.43060000  0.88970000  1.0
  C  C526  1  0.63660000  0.04250000  0.68640000  1.0
  C  C527  1  0.71120000  0.06920000  0.61780000  1.0
  C  C528  1  0.01270000  0.36030000  0.64330000  1.0
  C  C529  1  0.91680000  0.30160000  0.60420000  1.0
  C  C530  1  0.10440000  0.47070000  0.86990000  1.0
  C  C531  1  0.03110000  0.43370000  0.93720000  1.0
  C  C532  1  0.65110000  0.03480000  0.64080000  1.0
  C  C533  1  0.72800000  0.05860000  0.57020000  1.0
  C  C534  1  0.03900000  0.38810000  0.60540000  1.0
  C  C535  1  0.93920000  0.33030000  0.56700000  1.0
  C  C536  1  0.96050000  0.44900000  0.42320000  1.0
  C  C537  1  0.95270000  0.43650000  0.37500000  1.0
  C  C538  1  0.90020000  0.47170000  0.34860000  1.0
  C  C539  1  0.99750000  0.39140000  0.35720000  1.0
  C  C540  1  0.06460000  0.32600000  0.07500000  1.0
  C  C541  1  0.99380000  0.38690000  0.12040000  1.0
  C  C542  1  0.89450000  0.46270000  0.30460000  1.0
  C  C543  1  0.99330000  0.38110000  0.31290000  1.0
  C  C544  1  0.09350000  0.29340000  0.11050000  1.0
  C  C545  1  0.01530000  0.35250000  0.15570000  1.0
  C  C546  1  0.93950000  0.41810000  0.28640000  1.0
  C  C547  1  0.04320000  0.33080000  0.29410000  1.0
  C  C548  1  0.22600000  0.15340000  0.22000000  1.0
  C  C549  1  0.17310000  0.19950000  0.40690000  1.0
  C  C550  1  0.25790000  0.13630000  0.36590000  1.0
  C  C551  1  0.27410000  0.10310000  0.19840000  1.0
  C  C552  1  0.18960000  0.16910000  0.44340000  1.0
  C  C553  1  0.27520000  0.10770000  0.40330000  1.0
  C  C554  1  0.26610000  0.09740000  0.15420000  1.0
  C  C555  1  0.32300000  0.06600000  0.22260000  1.0
  C  C556  1  0.31070000  0.05290000  0.13290000  1.0
  C  C557  1  0.37140000  0.02170000  0.20210000  1.0
  C  C558  1  0.30060000  0.04310000  0.08480000  1.0
  C  C559  1  0.36440000  0.01600000  0.15830000  1.0
  C  C560  1  0.76870000  0.38740000  0.88780000  1.0
  C  C561  1  0.69390000  0.32630000  0.93090000  1.0
  C  C562  1  0.74230000  0.35750000  0.85120000  1.0
  C  C563  1  0.66630000  0.29620000  0.89530000  1.0
  C  C564  1  0.52830000  0.15860000  0.79450000  1.0
  C  C565  1  0.70830000  0.32970000  0.70650000  1.0
  C  C566  1  0.48560000  0.11270000  0.82060000  1.0
  C  C567  1  0.75940000  0.37910000  0.68340000  1.0
  C  C568  1  0.42720000  0.07140000  0.80020000  1.0
  C  C569  1  0.49530000  0.11070000  0.86550000  1.0
  C  C570  1  0.81450000  0.41360000  0.70620000  1.0
  C  C571  1  0.74310000  0.38600000  0.63920000  1.0
  C  C572  1  0.38540000  0.03060000  0.82640000  1.0
  C  C573  1  0.45310000  0.06940000  0.88970000  1.0
  C  C574  1  0.86340000  0.45750000  0.68640000  1.0
  C  C575  1  0.78880000  0.43080000  0.61780000  1.0
  C  C576  1  0.48730000  0.13970000  0.64330000  1.0
  C  C577  1  0.58320000  0.19840000  0.60420000  1.0
  C  C578  1  0.39560000  0.02930000  0.86990000  1.0
  C  C579  1  0.46890000  0.06630000  0.93720000  1.0
  C  C580  1  0.84890000  0.46520000  0.64080000  1.0
  C  C581  1  0.77200000  0.44140000  0.57020000  1.0
  C  C582  1  0.46100000  0.11190000  0.60540000  1.0
  C  C583  1  0.56080000  0.16970000  0.56700000  1.0
  C  C584  1  0.53950000  0.05100000  0.42320000  1.0
  C  C585  1  0.54730000  0.06350000  0.37500000  1.0
  C  C586  1  0.59980000  0.02830000  0.34860000  1.0
  C  C587  1  0.50250000  0.10860000  0.35720000  1.0
  C  C588  1  0.43540000  0.17400000  0.07500000  1.0
  C  C589  1  0.50620000  0.11310000  0.12040000  1.0
  C  C590  1  0.60550000  0.03730000  0.30460000  1.0
  C  C591  1  0.50670000  0.11890000  0.31290000  1.0
  C  C592  1  0.40650000  0.20660000  0.11050000  1.0
  C  C593  1  0.48470000  0.14750000  0.15570000  1.0
  C  C594  1  0.56050000  0.08190000  0.28640000  1.0
  C  C595  1  0.45680000  0.16920000  0.29410000  1.0
  C  C596  1  0.27400000  0.34660000  0.22000000  1.0
  C  C597  1  0.32690000  0.30050000  0.40690000  1.0
  C  C598  1  0.24210000  0.36370000  0.36590000  1.0
  C  C599  1  0.22590000  0.39690000  0.19840000  1.0
  C  C600  1  0.31040000  0.33090000  0.44340000  1.0
  C  C601  1  0.22480000  0.39230000  0.40330000  1.0
  C  C602  1  0.23390000  0.40260000  0.15420000  1.0
  C  C603  1  0.17700000  0.43400000  0.22260000  1.0
  C  C604  1  0.18930000  0.44710000  0.13290000  1.0
  C  C605  1  0.12860000  0.47830000  0.20210000  1.0
  C  C606  1  0.19940000  0.45690000  0.08480000  1.0
  C  C607  1  0.13560000  0.48400000  0.15830000  1.0
  C  C608  1  0.26870000  0.61260000  0.61220000  1.0
  C  C609  1  0.19390000  0.67370000  0.56910000  1.0
  C  C610  1  0.24230000  0.64250000  0.64880000  1.0
  C  C611  1  0.16630000  0.70380000  0.60470000  1.0
  C  C612  1  0.02830000  0.84140000  0.70550000  1.0
  C  C613  1  0.20830000  0.67030000  0.79350000  1.0
  C  C614  1  0.98560000  0.88730000  0.67940000  1.0
  C  C615  1  0.25940000  0.62090000  0.81660000  1.0
  C  C616  1  0.92720000  0.92860000  0.69980000  1.0
  C  C617  1  0.99530000  0.88930000  0.63450000  1.0
  C  C618  1  0.31450000  0.58640000  0.79380000  1.0
  C  C619  1  0.24310000  0.61400000  0.86080000  1.0
  C  C620  1  0.88540000  0.96940000  0.67360000  1.0
  C  C621  1  0.95310000  0.93060000  0.61030000  1.0
  C  C622  1  0.36340000  0.54250000  0.81360000  1.0
  C  C623  1  0.28880000  0.56920000  0.88220000  1.0
  C  C624  1  0.98730000  0.86030000  0.85670000  1.0
  C  C625  1  0.08320000  0.80160000  0.89580000  1.0
  C  C626  1  0.89560000  0.97070000  0.63010000  1.0
  C  C627  1  0.96890000  0.93370000  0.56280000  1.0
  C  C628  1  0.34890000  0.53480000  0.85920000  1.0
  C  C629  1  0.27200000  0.55860000  0.92980000  1.0
  C  C630  1  0.96100000  0.88810000  0.89460000  1.0
  C  C631  1  0.06080000  0.83030000  0.93300000  1.0
  C  C632  1  0.03950000  0.94900000  0.07680000  1.0
  C  C633  1  0.04730000  0.93650000  0.12500000  1.0
  C  C634  1  0.09980000  0.97170000  0.15140000  1.0
  C  C635  1  0.00250000  0.89140000  0.14280000  1.0
  C  C636  1  0.93540000  0.82600000  0.42500000  1.0
  C  C637  1  0.00620000  0.88690000  0.37960000  1.0
  C  C638  1  0.10550000  0.96270000  0.19540000  1.0
  C  C639  1  0.00670000  0.88110000  0.18710000  1.0
  C  C640  1  0.90650000  0.79340000  0.38950000  1.0
  C  C641  1  0.98470000  0.85250000  0.34430000  1.0
  C  C642  1  0.06050000  0.91810000  0.21360000  1.0
  C  C643  1  0.95680000  0.83080000  0.20590000  1.0
  C  C644  1  0.77400000  0.65340000  0.28000000  1.0
  C  C645  1  0.82690000  0.69950000  0.09310000  1.0
  C  C646  1  0.74210000  0.63630000  0.13410000  1.0
  C  C647  1  0.72590000  0.60310000  0.30160000  1.0
  C  C648  1  0.81040000  0.66910000  0.05660000  1.0
  C  C649  1  0.72480000  0.60770000  0.09670000  1.0
  C  C650  1  0.73390000  0.59740000  0.34580000  1.0
  C  C651  1  0.67700000  0.56600000  0.27740000  1.0
  C  C652  1  0.68930000  0.55290000  0.36710000  1.0
  C  C653  1  0.62860000  0.52170000  0.29790000  1.0
  C  C654  1  0.69940000  0.54310000  0.41520000  1.0
  C  C655  1  0.63560000  0.51600000  0.34170000  1.0
  C  C656  1  0.23130000  0.88740000  0.61220000  1.0
  C  C657  1  0.30610000  0.82630000  0.56910000  1.0
  C  C658  1  0.25770000  0.85750000  0.64880000  1.0
  C  C659  1  0.33370000  0.79620000  0.60470000  1.0
  C  C660  1  0.47170000  0.65860000  0.70550000  1.0
  C  C661  1  0.29170000  0.82970000  0.79350000  1.0
  C  C662  1  0.51440000  0.61270000  0.67940000  1.0
  C  C663  1  0.24060000  0.87910000  0.81660000  1.0
  C  C664  1  0.57280000  0.57140000  0.69980000  1.0
  C  C665  1  0.50470000  0.61070000  0.63450000  1.0
  C  C666  1  0.18550000  0.91360000  0.79380000  1.0
  C  C667  1  0.25690000  0.88600000  0.86080000  1.0
  C  C668  1  0.61460000  0.53060000  0.67360000  1.0
  C  C669  1  0.54690000  0.56940000  0.61030000  1.0
  C  C670  1  0.13660000  0.95750000  0.81360000  1.0
  C  C671  1  0.21120000  0.93080000  0.88220000  1.0
  C  C672  1  0.51270000  0.63970000  0.85670000  1.0
  C  C673  1  0.41680000  0.69840000  0.89580000  1.0
  C  C674  1  0.60440000  0.52930000  0.63010000  1.0
  C  C675  1  0.53110000  0.56630000  0.56280000  1.0
  C  C676  1  0.15110000  0.96520000  0.85920000  1.0
  C  C677  1  0.22800000  0.94140000  0.92980000  1.0
  C  C678  1  0.53900000  0.61190000  0.89460000  1.0
  C  C679  1  0.43920000  0.66970000  0.93300000  1.0
  C  C680  1  0.46050000  0.55100000  0.07680000  1.0
  C  C681  1  0.45270000  0.56350000  0.12500000  1.0
  C  C682  1  0.40020000  0.52830000  0.15140000  1.0
  C  C683  1  0.49750000  0.60860000  0.14280000  1.0
  C  C684  1  0.56460000  0.67400000  0.42500000  1.0
  C  C685  1  0.49380000  0.61310000  0.37960000  1.0
  C  C686  1  0.39450000  0.53730000  0.19540000  1.0
  C  C687  1  0.49330000  0.61890000  0.18710000  1.0
  C  C688  1  0.59350000  0.70660000  0.38950000  1.0
  C  C689  1  0.51530000  0.64750000  0.34430000  1.0
  C  C690  1  0.43950000  0.58190000  0.21360000  1.0
  C  C691  1  0.54320000  0.66920000  0.20590000  1.0
  C  C692  1  0.72600000  0.84660000  0.28000000  1.0
  C  C693  1  0.67310000  0.80050000  0.09310000  1.0
  C  C694  1  0.75790000  0.86370000  0.13410000  1.0
  C  C695  1  0.77410000  0.89690000  0.30160000  1.0
  C  C696  1  0.68960000  0.83090000  0.05660000  1.0
  C  C697  1  0.77520000  0.89230000  0.09670000  1.0
  C  C698  1  0.76610000  0.90260000  0.34580000  1.0
  C  C699  1  0.82300000  0.93400000  0.27740000  1.0
  C  C700  1  0.81070000  0.94710000  0.36710000  1.0
  C  C701  1  0.87140000  0.97830000  0.29790000  1.0
  C  C702  1  0.80060000  0.95690000  0.41520000  1.0
  C  C703  1  0.86440000  0.98400000  0.34170000  1.0
  N  N704  1  0.24220000  0.87310000  0.07180000  1.0
  N  N705  1  0.18960000  0.80990000  0.14440000  1.0
  N  N706  1  0.04570000  0.68310000  0.35610000  1.0
  N  N707  1  0.00220000  0.62570000  0.43220000  1.0
  N  N708  1  0.98410000  0.62680000  0.91950000  1.0
  N  N709  1  0.93580000  0.69330000  0.84850000  1.0
  N  N710  1  0.79700000  0.81600000  0.63240000  1.0
  N  N711  1  0.75800000  0.87730000  0.55790000  1.0
  N  N712  1  0.25780000  0.62690000  0.07180000  1.0
  N  N713  1  0.31040000  0.69010000  0.14440000  1.0
  N  N714  1  0.45430000  0.81690000  0.35610000  1.0
  N  N715  1  0.49780000  0.87430000  0.43220000  1.0
  N  N716  1  0.51590000  0.87320000  0.91950000  1.0
  N  N717  1  0.56420000  0.80670000  0.84850000  1.0
  N  N718  1  0.70300000  0.68400000  0.63240000  1.0
  N  N719  1  0.74200000  0.62270000  0.55790000  1.0
  N  N720  1  0.75780000  0.37310000  0.42820000  1.0
  N  N721  1  0.81040000  0.30990000  0.35560000  1.0
  N  N722  1  0.95430000  0.18310000  0.14390000  1.0
  N  N723  1  0.99780000  0.12570000  0.06780000  1.0
  N  N724  1  0.01590000  0.12680000  0.58050000  1.0
  N  N725  1  0.06420000  0.19330000  0.65150000  1.0
  N  N726  1  0.20300000  0.31600000  0.86760000  1.0
  N  N727  1  0.24200000  0.37730000  0.94210000  1.0
  N  N728  1  0.74220000  0.12690000  0.42820000  1.0
  N  N729  1  0.68960000  0.19010000  0.35560000  1.0
  N  N730  1  0.54570000  0.31690000  0.14390000  1.0
  N  N731  1  0.50220000  0.37430000  0.06780000  1.0
  N  N732  1  0.48410000  0.37320000  0.58050000  1.0
  N  N733  1  0.43580000  0.30670000  0.65150000  1.0
  N  N734  1  0.29700000  0.18400000  0.86760000  1.0
  N  N735  1  0.25800000  0.12270000  0.94210000  1.0
  N  N736  1  0.75780000  0.12690000  0.92820000  1.0
  N  N737  1  0.81040000  0.19010000  0.85560000  1.0
  N  N738  1  0.95430000  0.31690000  0.64390000  1.0
  N  N739  1  0.99780000  0.37430000  0.56780000  1.0
  N  N740  1  0.01590000  0.37320000  0.08050000  1.0
  N  N741  1  0.06420000  0.30670000  0.15150000  1.0
  N  N742  1  0.20300000  0.18400000  0.36760000  1.0
  N  N743  1  0.24200000  0.12270000  0.44210000  1.0
  N  N744  1  0.74220000  0.37310000  0.92820000  1.0
  N  N745  1  0.68960000  0.30990000  0.85560000  1.0
  N  N746  1  0.54570000  0.18310000  0.64390000  1.0
  N  N747  1  0.50220000  0.12570000  0.56780000  1.0
  N  N748  1  0.48410000  0.12680000  0.08050000  1.0
  N  N749  1  0.43580000  0.19330000  0.15150000  1.0
  N  N750  1  0.29700000  0.31600000  0.36760000  1.0
  N  N751  1  0.25800000  0.37730000  0.44210000  1.0
  N  N752  1  0.24220000  0.62690000  0.57180000  1.0
  N  N753  1  0.18960000  0.69010000  0.64440000  1.0
  N  N754  1  0.04570000  0.81690000  0.85610000  1.0
  N  N755  1  0.00220000  0.87430000  0.93220000  1.0
  N  N756  1  0.98410000  0.87320000  0.41950000  1.0
  N  N757  1  0.93580000  0.80670000  0.34850000  1.0
  N  N758  1  0.79700000  0.68400000  0.13240000  1.0
  N  N759  1  0.75800000  0.62270000  0.05790000  1.0
  N  N760  1  0.25780000  0.87310000  0.57180000  1.0
  N  N761  1  0.31040000  0.80990000  0.64440000  1.0
  N  N762  1  0.45430000  0.68310000  0.85610000  1.0
  N  N763  1  0.49780000  0.62570000  0.93220000  1.0
  N  N764  1  0.51590000  0.62680000  0.41950000  1.0
  N  N765  1  0.56420000  0.69330000  0.34850000  1.0
  N  N766  1  0.70300000  0.81600000  0.13240000  1.0
  N  N767  1  0.74200000  0.87730000  0.05790000  1.0
  O  O768  1  0.28240000  0.90950000  0.94970000  1.0
  O  O769  1  0.34720000  0.00420000  0.06840000  1.0
  O  O770  1  0.07020000  0.69530000  0.18380000  1.0
  O  O771  1  0.22410000  0.82660000  0.25340000  1.0
  O  O772  1  0.01900000  0.65810000  0.24580000  1.0
  O  O773  1  0.15930000  0.79710000  0.31620000  1.0
  O  O774  1  0.99140000  0.58400000  0.55280000  1.0
  O  O775  1  0.92840000  0.52930000  0.03930000  1.0
  O  O776  1  0.02570000  0.60280000  0.04420000  1.0
  O  O777  1  0.31630000  0.98350000  0.44580000  1.0
  O  O778  1  0.07420000  0.50630000  0.56230000  1.0
  O  O779  1  0.91530000  0.70030000  0.67990000  1.0
  O  O780  1  0.96520000  0.67650000  0.74700000  1.0
  O  O781  1  0.81390000  0.81150000  0.80550000  1.0
  O  O782  1  0.77310000  0.84450000  0.73930000  1.0
  O  O783  1  0.75490000  0.92010000  0.43670000  1.0
  O  O784  1  0.21760000  0.59050000  0.94970000  1.0
  O  O785  1  0.15280000  0.49580000  0.06840000  1.0
  O  O786  1  0.42980000  0.80470000  0.18380000  1.0
  O  O787  1  0.27590000  0.67340000  0.25340000  1.0
  O  O788  1  0.48100000  0.84190000  0.24580000  1.0
  O  O789  1  0.34070000  0.70290000  0.31620000  1.0
  O  O790  1  0.50860000  0.91600000  0.55280000  1.0
  O  O791  1  0.57160000  0.97070000  0.03930000  1.0
  O  O792  1  0.47430000  0.89720000  0.04420000  1.0
  O  O793  1  0.18370000  0.51650000  0.44580000  1.0
  O  O794  1  0.42580000  0.99370000  0.56230000  1.0
  O  O795  1  0.58470000  0.79970000  0.67990000  1.0
  O  O796  1  0.53480000  0.82350000  0.74700000  1.0
  O  O797  1  0.68610000  0.68850000  0.80550000  1.0
  O  O798  1  0.72690000  0.65550000  0.73930000  1.0
  O  O799  1  0.74510000  0.57990000  0.43670000  1.0
  O  O800  1  0.71760000  0.40950000  0.55030000  1.0
  O  O801  1  0.65280000  0.50420000  0.43160000  1.0
  O  O802  1  0.92980000  0.19530000  0.31620000  1.0
  O  O803  1  0.77590000  0.32660000  0.24660000  1.0
  O  O804  1  0.98100000  0.15810000  0.25420000  1.0
  O  O805  1  0.84070000  0.29710000  0.18380000  1.0
  O  O806  1  0.00860000  0.08400000  0.94720000  1.0
  O  O807  1  0.07160000  0.02930000  0.46070000  1.0
  O  O808  1  0.97430000  0.10280000  0.45580000  1.0
  O  O809  1  0.68370000  0.48350000  0.05420000  1.0
  O  O810  1  0.92580000  0.00630000  0.93770000  1.0
  O  O811  1  0.08470000  0.20030000  0.82010000  1.0
  O  O812  1  0.03480000  0.17650000  0.75300000  1.0
  O  O813  1  0.18610000  0.31150000  0.69450000  1.0
  O  O814  1  0.22690000  0.34450000  0.76070000  1.0
  O  O815  1  0.24510000  0.42010000  0.06330000  1.0
  O  O816  1  0.78240000  0.09050000  0.55030000  1.0
  O  O817  1  0.84720000  0.99580000  0.43160000  1.0
  O  O818  1  0.57020000  0.30470000  0.31620000  1.0
  O  O819  1  0.72410000  0.17340000  0.24660000  1.0
  O  O820  1  0.51900000  0.34190000  0.25420000  1.0
  O  O821  1  0.65930000  0.20290000  0.18380000  1.0
  O  O822  1  0.49140000  0.41600000  0.94720000  1.0
  O  O823  1  0.42840000  0.47070000  0.46070000  1.0
  O  O824  1  0.52570000  0.39720000  0.45580000  1.0
  O  O825  1  0.81630000  0.01650000  0.05420000  1.0
  O  O826  1  0.57420000  0.49370000  0.93770000  1.0
  O  O827  1  0.41530000  0.29970000  0.82010000  1.0
  O  O828  1  0.46520000  0.32350000  0.75300000  1.0
  O  O829  1  0.31390000  0.18850000  0.69450000  1.0
  O  O830  1  0.27310000  0.15550000  0.76070000  1.0
  O  O831  1  0.25490000  0.07990000  0.06330000  1.0
  O  O832  1  0.71760000  0.09050000  0.05030000  1.0
  O  O833  1  0.65280000  0.99580000  0.93160000  1.0
  O  O834  1  0.92980000  0.30470000  0.81620000  1.0
  O  O835  1  0.77590000  0.17340000  0.74660000  1.0
  O  O836  1  0.98100000  0.34190000  0.75420000  1.0
  O  O837  1  0.84070000  0.20290000  0.68380000  1.0
  O  O838  1  0.00860000  0.41600000  0.44720000  1.0
  O  O839  1  0.07160000  0.47070000  0.96070000  1.0
  O  O840  1  0.97430000  0.39720000  0.95580000  1.0
  O  O841  1  0.68370000  0.01650000  0.55420000  1.0
  O  O842  1  0.92580000  0.49370000  0.43770000  1.0
  O  O843  1  0.08470000  0.29970000  0.32010000  1.0
  O  O844  1  0.03480000  0.32350000  0.25300000  1.0
  O  O845  1  0.18610000  0.18850000  0.19450000  1.0
  O  O846  1  0.22690000  0.15550000  0.26070000  1.0
  O  O847  1  0.24510000  0.07990000  0.56330000  1.0
  O  O848  1  0.78240000  0.40950000  0.05030000  1.0
  O  O849  1  0.84720000  0.50420000  0.93160000  1.0
  O  O850  1  0.57020000  0.19530000  0.81620000  1.0
  O  O851  1  0.72410000  0.32660000  0.74660000  1.0
  O  O852  1  0.51900000  0.15810000  0.75420000  1.0
  O  O853  1  0.65930000  0.29710000  0.68380000  1.0
  O  O854  1  0.49140000  0.08400000  0.44720000  1.0
  O  O855  1  0.42840000  0.02930000  0.96070000  1.0
  O  O856  1  0.52570000  0.10280000  0.95580000  1.0
  O  O857  1  0.81630000  0.48350000  0.55420000  1.0
  O  O858  1  0.57420000  0.00630000  0.43770000  1.0
  O  O859  1  0.41530000  0.20030000  0.32010000  1.0
  O  O860  1  0.46520000  0.17650000  0.25300000  1.0
  O  O861  1  0.31390000  0.31150000  0.19450000  1.0
  O  O862  1  0.27310000  0.34450000  0.26070000  1.0
  O  O863  1  0.25490000  0.42010000  0.56330000  1.0
  O  O864  1  0.28240000  0.59050000  0.44970000  1.0
  O  O865  1  0.34720000  0.49580000  0.56840000  1.0
  O  O866  1  0.07020000  0.80470000  0.68380000  1.0
  O  O867  1  0.22410000  0.67340000  0.75340000  1.0
  O  O868  1  0.01900000  0.84190000  0.74580000  1.0
  O  O869  1  0.15930000  0.70290000  0.81620000  1.0
  O  O870  1  0.99140000  0.91600000  0.05280000  1.0
  O  O871  1  0.92840000  0.97070000  0.53930000  1.0
  O  O872  1  0.02570000  0.89720000  0.54420000  1.0
  O  O873  1  0.31630000  0.51650000  0.94580000  1.0
  O  O874  1  0.07420000  0.99370000  0.06230000  1.0
  O  O875  1  0.91530000  0.79970000  0.17990000  1.0
  O  O876  1  0.96520000  0.82350000  0.24700000  1.0
  O  O877  1  0.81390000  0.68850000  0.30550000  1.0
  O  O878  1  0.77310000  0.65550000  0.23930000  1.0
  O  O879  1  0.75490000  0.57990000  0.93670000  1.0
  O  O880  1  0.21760000  0.90950000  0.44970000  1.0
  O  O881  1  0.15280000  0.00420000  0.56840000  1.0
  O  O882  1  0.42980000  0.69530000  0.68380000  1.0
  O  O883  1  0.27590000  0.82660000  0.75340000  1.0
  O  O884  1  0.48100000  0.65810000  0.74580000  1.0
  O  O885  1  0.34070000  0.79710000  0.81620000  1.0
  O  O886  1  0.50860000  0.58400000  0.05280000  1.0
  O  O887  1  0.57160000  0.52930000  0.53930000  1.0
  O  O888  1  0.47430000  0.60280000  0.54420000  1.0
  O  O889  1  0.18370000  0.98350000  0.94580000  1.0
  O  O890  1  0.42580000  0.50630000  0.06230000  1.0
  O  O891  1  0.58470000  0.70030000  0.17990000  1.0
  O  O892  1  0.53480000  0.67650000  0.24700000  1.0
  O  O893  1  0.68610000  0.81150000  0.30550000  1.0
  O  O894  1  0.72690000  0.84450000  0.23930000  1.0
  O  O895  1  0.74510000  0.92010000  0.93670000  1.0
