# generated using pymatgen
data_Zn4H68C132O13
_symmetry_space_group_name_H-M   'P 1'
_cell_length_a   69.29800000
_cell_length_b   69.30550000
_cell_length_c   69.30130000
_cell_angle_alpha   89.64940000
_cell_angle_beta   92.91930000
_cell_angle_gamma   90.43360000
_symmetry_Int_Tables_number   1
_chemical_formula_structural   Zn4H68C132O13
_chemical_formula_sum   'Zn24 H408 C792 O78'
_cell_volume   332388.67712041
_cell_formula_units_Z   6
loop_
 _symmetry_equiv_pos_site_id
 _symmetry_equiv_pos_as_xyz
  1  'x, y, z'
loop_
 _atom_site_type_symbol
 _atom_site_label
 _atom_site_symmetry_multiplicity
 _atom_site_fract_x
 _atom_site_fract_y
 _atom_site_fract_z
 _atom_site_occupancy
  Zn  Zn0  1  0.51906000  0.48425000  0.50412000  1.0
  Zn  Zn1  1  0.51919000  0.52957000  0.50390000  1.0
  Zn  Zn2  1  0.48602000  0.50680000  0.48031000  1.0
  Zn  Zn3  1  0.48693000  0.50673000  0.52565000  1.0
  Zn  Zn4  1  0.72368000  0.00689000  0.76442000  1.0
  Zn  Zn5  1  0.74515000  0.98439000  0.73222000  1.0
  Zn  Zn6  1  0.74547000  0.02970000  0.73218000  1.0
  Zn  Zn7  1  0.76905000  0.00691000  0.76531000  1.0
  Zn  Zn8  1  0.01896000  0.50809000  0.51541000  1.0
  Zn  Zn9  1  0.98595000  0.53059000  0.49152000  1.0
  Zn  Zn10  1  0.01811000  0.50809000  0.47004000  1.0
  Zn  Zn11  1  0.98583000  0.48527000  0.49176000  1.0
  Zn  Zn12  1  0.25332000  0.27393000  0.02129000  1.0
  Zn  Zn13  1  0.22992000  0.24132000  0.99817000  1.0
  Zn  Zn14  1  0.25219000  0.27403000  0.97592000  1.0
  Zn  Zn15  1  0.27530000  0.24145000  0.99926000  1.0
  Zn  Zn16  1  0.75774000  0.98546000  0.26551000  1.0
  Zn  Zn17  1  0.77945000  0.00832000  0.23324000  1.0
  Zn  Zn18  1  0.73410000  0.00820000  0.23238000  1.0
  Zn  Zn19  1  0.75793000  0.03079000  0.26543000  1.0
  Zn  Zn20  1  0.25107000  0.74100000  0.01964000  1.0
  Zn  Zn21  1  0.24988000  0.74107000  0.97425000  1.0
  Zn  Zn22  1  0.22800000  0.77360000  0.99628000  1.0
  Zn  Zn23  1  0.27337000  0.77368000  0.99734000  1.0
  H  H24  1  0.98424000  0.25845000  0.26782000  1.0
  H  H25  1  0.00913000  0.23232000  0.21961000  1.0
  H  H26  1  0.03287000  0.28473000  0.24283000  1.0
  H  H27  1  0.06066000  0.26832000  0.23404000  1.0
  H  H28  1  0.08476000  0.26839000  0.20956000  1.0
  H  H29  1  0.04240000  0.24847000  0.16759000  1.0
  H  H30  1  0.01795000  0.24879000  0.19168000  1.0
  H  H31  1  0.98109000  0.22568000  0.27480000  1.0
  H  H32  1  0.95601000  0.20084000  0.27527000  1.0
  H  H33  1  0.95082000  0.20166000  0.21383000  1.0
  H  H34  1  0.97554000  0.22693000  0.21303000  1.0
  H  H35  1  0.97753000  0.29117000  0.27046000  1.0
  H  H36  1  0.97709000  0.31590000  0.29530000  1.0
  H  H37  1  0.03851000  0.31537000  0.30092000  1.0
  H  H38  1  0.03928000  0.29021000  0.27643000  1.0
  H  H39  1  0.91785000  0.14356000  0.22126000  1.0
  H  H40  1  0.89231000  0.11881000  0.22256000  1.0
  H  H41  1  0.87178000  0.14509000  0.27292000  1.0
  H  H42  1  0.89732000  0.16983000  0.27161000  1.0
  H  H43  1  0.03116000  0.37328000  0.33363000  1.0
  H  H44  1  0.02960000  0.39789000  0.35891000  1.0
  H  H45  1  0.97867000  0.37120000  0.37880000  1.0
  H  H46  1  0.98023000  0.34659000  0.35351000  1.0
  H  H47  1  0.09328000  0.23398000  0.13079000  1.0
  H  H48  1  0.11766000  0.23372000  0.10621000  1.0
  H  H49  1  0.14620000  0.28174000  0.13343000  1.0
  H  H50  1  0.12182000  0.28199000  0.15801000  1.0
  H  H51  1  0.82245000  0.10246000  0.27119000  1.0
  H  H52  1  0.79735000  0.07755000  0.27167000  1.0
  H  H53  1  0.82571000  0.04671000  0.22798000  1.0
  H  H54  1  0.85054000  0.07175000  0.22778000  1.0
  H  H55  1  0.19163000  0.27938000  0.09105000  1.0
  H  H56  1  0.21598000  0.27951000  0.06686000  1.0
  H  H57  1  0.18428000  0.23533000  0.03578000  1.0
  H  H58  1  0.16011000  0.23549000  0.06019000  1.0
  H  H59  1  0.98024000  0.41356000  0.42803000  1.0
  H  H60  1  0.97960000  0.43845000  0.45282000  1.0
  H  H61  1  0.02329000  0.47001000  0.42419000  1.0
  H  H62  1  0.02364000  0.44501000  0.39969000  1.0
  H  H63  1  0.03072000  0.73301000  0.24063000  1.0
  H  H64  1  0.00582000  0.78432000  0.21619000  1.0
  H  H65  1  0.98169000  0.75929000  0.26588000  1.0
  H  H66  1  0.95386000  0.76909000  0.24764000  1.0
  H  H67  1  0.92960000  0.79430000  0.24876000  1.0
  H  H68  1  0.97137000  0.83647000  0.23401000  1.0
  H  H69  1  0.99604000  0.81152000  0.23333000  1.0
  H  H70  1  0.05818000  0.75080000  0.23210000  1.0
  H  H71  1  0.08225000  0.75054000  0.20760000  1.0
  H  H72  1  0.03953000  0.76765000  0.16475000  1.0
  H  H73  1  0.01510000  0.76748000  0.18891000  1.0
  H  H74  1  0.03728000  0.72634000  0.27347000  1.0
  H  H75  1  0.03671000  0.70108000  0.29813000  1.0
  H  H76  1  0.97524000  0.70136000  0.29478000  1.0
  H  H77  1  0.97544000  0.72619000  0.26973000  1.0
  H  H78  1  0.09199000  0.78296000  0.12830000  1.0
  H  H79  1  0.11657000  0.78251000  0.10392000  1.0
  H  H80  1  0.14256000  0.73346000  0.13158000  1.0
  H  H81  1  0.11799000  0.73390000  0.15596000  1.0
  H  H82  1  0.98010000  0.67022000  0.35331000  1.0
  H  H83  1  0.97899000  0.64539000  0.37876000  1.0
  H  H84  1  0.02785000  0.61801000  0.35637000  1.0
  H  H85  1  0.02896000  0.64284000  0.33093000  1.0
  H  H86  1  0.91699000  0.87501000  0.22053000  1.0
  H  H87  1  0.89184000  0.89968000  0.22251000  1.0
  H  H88  1  0.86941000  0.87018000  0.27069000  1.0
  H  H89  1  0.89456000  0.84551000  0.26871000  1.0
  H  H90  1  0.18910000  0.73545000  0.08956000  1.0
  H  H91  1  0.21348000  0.73516000  0.06536000  1.0
  H  H92  1  0.18253000  0.77932000  0.03363000  1.0
  H  H93  1  0.15837000  0.77932000  0.05801000  1.0
  H  H94  1  0.82152000  0.91383000  0.27088000  1.0
  H  H95  1  0.79673000  0.93868000  0.27163000  1.0
  H  H96  1  0.82535000  0.97040000  0.22807000  1.0
  H  H97  1  0.84985000  0.94544000  0.22760000  1.0
  H  H98  1  0.02361000  0.57148000  0.39892000  1.0
  H  H99  1  0.02343000  0.54645000  0.42374000  1.0
  H  H100  1  0.97971000  0.57721000  0.45212000  1.0
  H  H101  1  0.98017000  0.60210000  0.42705000  1.0
  H  H102  1  0.02183000  0.28246000  0.74282000  1.0
  H  H103  1  0.97048000  0.25763000  0.71683000  1.0
  H  H104  1  0.99654000  0.23287000  0.76813000  1.0
  H  H105  1  0.96343000  0.23015000  0.77373000  1.0
  H  H106  1  0.93864000  0.20501000  0.77424000  1.0
  H  H107  1  0.93967000  0.19958000  0.71318000  1.0
  H  H108  1  0.96488000  0.22434000  0.71238000  1.0
  H  H109  1  0.02738000  0.28516000  0.70971000  1.0
  H  H110  1  0.02787000  0.31026000  0.68491000  1.0
  H  H111  1  0.96681000  0.31563000  0.68603000  1.0
  H  H112  1  0.96604000  0.29090000  0.71125000  1.0
  H  H113  1  0.04907000  0.26453000  0.75371000  1.0
  H  H114  1  0.07449000  0.26475000  0.77941000  1.0
  H  H115  1  0.03321000  0.25062000  0.82074000  1.0
  H  H116  1  0.00747000  0.25084000  0.79536000  1.0
  H  H117  1  0.97334000  0.34760000  0.62720000  1.0
  H  H118  1  0.97469000  0.37306000  0.60241000  1.0
  H  H119  1  0.02655000  0.39504000  0.62999000  1.0
  H  H120  1  0.02520000  0.36957000  0.65478000  1.0
  H  H121  1  0.08560000  0.23489000  0.86051000  1.0
  H  H122  1  0.11138000  0.23487000  0.88626000  1.0
  H  H123  1  0.14017000  0.28042000  0.85753000  1.0
  H  H124  1  0.11439000  0.28043000  0.83178000  1.0
  H  H125  1  0.88092000  0.16745000  0.71973000  1.0
  H  H126  1  0.85615000  0.14194000  0.72111000  1.0
  H  H127  1  0.88371000  0.12017000  0.77302000  1.0
  H  H128  1  0.90849000  0.14569000  0.77164000  1.0
  H  H129  1  0.02450000  0.44441000  0.58762000  1.0
  H  H130  1  0.02503000  0.46939000  0.56262000  1.0
  H  H131  1  0.98063000  0.43883000  0.52987000  1.0
  H  H132  1  0.98040000  0.41414000  0.55501000  1.0
  H  H133  1  0.84133000  0.07066000  0.77094000  1.0
  H  H134  1  0.81632000  0.04566000  0.77144000  1.0
  H  H135  1  0.78361000  0.07614000  0.72704000  1.0
  H  H136  1  0.80877000  0.10086000  0.72684000  1.0
  H  H137  1  0.18686000  0.27958000  0.90302000  1.0
  H  H138  1  0.21252000  0.27974000  0.92844000  1.0
  H  H139  1  0.18242000  0.23553000  0.95853000  1.0
  H  H140  1  0.15697000  0.23567000  0.93290000  1.0
  H  H141  1  0.02006000  0.73388000  0.74068000  1.0
  H  H142  1  0.99396000  0.78192000  0.76666000  1.0
  H  H143  1  0.96931000  0.75886000  0.71403000  1.0
  H  H144  1  0.94169000  0.76798000  0.73069000  1.0
  H  H145  1  0.91676000  0.79269000  0.73137000  1.0
  H  H146  1  0.95895000  0.83406000  0.75082000  1.0
  H  H147  1  0.98414000  0.80979000  0.74974000  1.0
  H  H148  1  0.02480000  0.72712000  0.77376000  1.0
  H  H149  1  0.05042000  0.72713000  0.79925000  1.0
  H  H150  1  0.05252000  0.78849000  0.79767000  1.0
  H  H151  1  0.02728000  0.78882000  0.77179000  1.0
  H  H152  1  0.02691000  0.73091000  0.70811000  1.0
  H  H153  1  0.02754000  0.70576000  0.68351000  1.0
  H  H154  1  0.96527000  0.70110000  0.68284000  1.0
  H  H155  1  0.96436000  0.72561000  0.70776000  1.0
  H  H156  1  0.08626000  0.78324000  0.85615000  1.0
  H  H157  1  0.11210000  0.78314000  0.88184000  1.0
  H  H158  1  0.13481000  0.73176000  0.85869000  1.0
  H  H159  1  0.10897000  0.73187000  0.83300000  1.0
  H  H160  1  0.97206000  0.66766000  0.62512000  1.0
  H  H161  1  0.97383000  0.64218000  0.60073000  1.0
  H  H162  1  0.02553000  0.62129000  0.62918000  1.0
  H  H163  1  0.02376000  0.64677000  0.65356000  1.0
  H  H164  1  0.90857000  0.86998000  0.76880000  1.0
  H  H165  1  0.88398000  0.89522000  0.77074000  1.0
  H  H166  1  0.85312000  0.87146000  0.72162000  1.0
  H  H167  1  0.87772000  0.84623000  0.71968000  1.0
  H  H168  1  0.18433000  0.73543000  0.90152000  1.0
  H  H169  1  0.21003000  0.73527000  0.92691000  1.0
  H  H170  1  0.18057000  0.77940000  0.95659000  1.0
  H  H171  1  0.15507000  0.77926000  0.93100000  1.0
  H  H172  1  0.80749000  0.91349000  0.72677000  1.0
  H  H173  1  0.78262000  0.93807000  0.72718000  1.0
  H  H174  1  0.81594000  0.96815000  0.77140000  1.0
  H  H175  1  0.84069000  0.94327000  0.77069000  1.0
  H  H176  1  0.02420000  0.57174000  0.58717000  1.0
  H  H177  1  0.02498000  0.54687000  0.56238000  1.0
  H  H178  1  0.98082000  0.57687000  0.52902000  1.0
  H  H179  1  0.98033000  0.60144000  0.55394000  1.0
  H  H180  1  0.50862000  0.23286000  0.22961000  1.0
  H  H181  1  0.53473000  0.25743000  0.28087000  1.0
  H  H182  1  0.48356000  0.28200000  0.25470000  1.0
  H  H183  1  0.47791000  0.28438000  0.28774000  1.0
  H  H184  1  0.47743000  0.30935000  0.31235000  1.0
  H  H185  1  0.53854000  0.31531000  0.31149000  1.0
  H  H186  1  0.53931000  0.29071000  0.28646000  1.0
  H  H187  1  0.54168000  0.23045000  0.22404000  1.0
  H  H188  1  0.56626000  0.20549000  0.22359000  1.0
  H  H189  1  0.56526000  0.19956000  0.28468000  1.0
  H  H190  1  0.54025000  0.22414000  0.28542000  1.0
  H  H191  1  0.49780000  0.25091000  0.20229000  1.0
  H  H192  1  0.47210000  0.25071000  0.17687000  1.0
  H  H193  1  0.43085000  0.26421000  0.21808000  1.0
  H  H194  1  0.45623000  0.26395000  0.24382000  1.0
  H  H195  1  0.62363000  0.16752000  0.27818000  1.0
  H  H196  1  0.64816000  0.14217000  0.27673000  1.0
  H  H197  1  0.62052000  0.12114000  0.22465000  1.0
  H  H198  1  0.59599000  0.14650000  0.22610000  1.0
  H  H199  1  0.39171000  0.28084000  0.16504000  1.0
  H  H200  1  0.36595000  0.28089000  0.13927000  1.0
  H  H201  1  0.39323000  0.23433000  0.11181000  1.0
  H  H202  1  0.41900000  0.23428000  0.13758000  1.0
  H  H203  1  0.53178000  0.34724000  0.37002000  1.0
  H  H204  1  0.53028000  0.37260000  0.39455000  1.0
  H  H205  1  0.47853000  0.39387000  0.36652000  1.0
  H  H206  1  0.48004000  0.36850000  0.34197000  1.0
  H  H207  1  0.66239000  0.07167000  0.22671000  1.0
  H  H208  1  0.68719000  0.04683000  0.22616000  1.0
  H  H209  1  0.72026000  0.07703000  0.27046000  1.0
  H  H210  1  0.69533000  0.10158000  0.27071000  1.0
  H  H211  1  0.48034000  0.44319000  0.40860000  1.0
  H  H212  1  0.47976000  0.46806000  0.43340000  1.0
  H  H213  1  0.52407000  0.43798000  0.46649000  1.0
  H  H214  1  0.52435000  0.41341000  0.44155000  1.0
  H  H215  1  0.34816000  0.23583000  0.06465000  1.0
  H  H216  1  0.32272000  0.23570000  0.03901000  1.0
  H  H217  1  0.29312000  0.27973000  0.06871000  1.0
  H  H218  1  0.31876000  0.27956000  0.09415000  1.0
  H  H219  1  0.53336000  0.75661000  0.27813000  1.0
  H  H220  1  0.48118000  0.73270000  0.25298000  1.0
  H  H221  1  0.50684000  0.78192000  0.22734000  1.0
  H  H222  1  0.47371000  0.78794000  0.22245000  1.0
  H  H223  1  0.44826000  0.78783000  0.19677000  1.0
  H  H224  1  0.45048000  0.72657000  0.19430000  1.0
  H  H225  1  0.47632000  0.72635000  0.21959000  1.0
  H  H226  1  0.51655000  0.74692000  0.30550000  1.0
  H  H227  1  0.51626000  0.72192000  0.33047000  1.0
  H  H228  1  0.49761000  0.68045000  0.28837000  1.0
  H  H229  1  0.49830000  0.70506000  0.26311000  1.0
  H  H230  1  0.53833000  0.79015000  0.28354000  1.0
  H  H231  1  0.56353000  0.81496000  0.28311000  1.0
  H  H232  1  0.56445000  0.81056000  0.22195000  1.0
  H  H233  1  0.53968000  0.78539000  0.22209000  1.0
  H  H234  1  0.48067000  0.64336000  0.33938000  1.0
  H  H235  1  0.47949000  0.61805000  0.36434000  1.0
  H  H236  1  0.52824000  0.64353000  0.39452000  1.0
  H  H237  1  0.52942000  0.66884000  0.36957000  1.0
  H  H238  1  0.59492000  0.86950000  0.22520000  1.0
  H  H239  1  0.61975000  0.89500000  0.22414000  1.0
  H  H240  1  0.64689000  0.87296000  0.27613000  1.0
  H  H241  1  0.62206000  0.84747000  0.27720000  1.0
  H  H242  1  0.39128000  0.73171000  0.16131000  1.0
  H  H243  1  0.36553000  0.73174000  0.13553000  1.0
  H  H244  1  0.38944000  0.78290000  0.11179000  1.0
  H  H245  1  0.41520000  0.78287000  0.13758000  1.0
  H  H246  1  0.52447000  0.60077000  0.44065000  1.0
  H  H247  1  0.52435000  0.57605000  0.46578000  1.0
  H  H248  1  0.47984000  0.54551000  0.43316000  1.0
  H  H249  1  0.48026000  0.57049000  0.40819000  1.0
  H  H250  1  0.34636000  0.77928000  0.06259000  1.0
  H  H251  1  0.32092000  0.77943000  0.03696000  1.0
  H  H252  1  0.29077000  0.73526000  0.06707000  1.0
  H  H253  1  0.31643000  0.73541000  0.09249000  1.0
  H  H254  1  0.69447000  0.91418000  0.27077000  1.0
  H  H255  1  0.71960000  0.93894000  0.27066000  1.0
  H  H256  1  0.68695000  0.96941000  0.22621000  1.0
  H  H257  1  0.66198000  0.94438000  0.22662000  1.0
  H  H258  1  0.49731000  0.23082000  0.77934000  1.0
  H  H259  1  0.52175000  0.25655000  0.73016000  1.0
  H  H260  1  0.47252000  0.28175000  0.75403000  1.0
  H  H261  1  0.49037000  0.30909000  0.74436000  1.0
  H  H262  1  0.49087000  0.33408000  0.71938000  1.0
  H  H263  1  0.50477000  0.29207000  0.67788000  1.0
  H  H264  1  0.50382000  0.26680000  0.70246000  1.0
  H  H265  1  0.53061000  0.22520000  0.78508000  1.0
  H  H266  1  0.55516000  0.20015000  0.78437000  1.0
  H  H267  1  0.54910000  0.19892000  0.72299000  1.0
  H  H268  1  0.52418000  0.22354000  0.72337000  1.0
  H  H269  1  0.46433000  0.22593000  0.78342000  1.0
  H  H270  1  0.44025000  0.22633000  0.80790000  1.0
  H  H271  1  0.44501000  0.28747000  0.81127000  1.0
  H  H272  1  0.46951000  0.28737000  0.78721000  1.0
  H  H273  1  0.60746000  0.16833000  0.72618000  1.0
  H  H274  1  0.63268000  0.14367000  0.72473000  1.0
  H  H275  1  0.61282000  0.11741000  0.77586000  1.0
  H  H276  1  0.58760000  0.14207000  0.77731000  1.0
  H  H277  1  0.38627000  0.28286000  0.84066000  1.0
  H  H278  1  0.36167000  0.28313000  0.86503000  1.0
  H  H279  1  0.38587000  0.23219000  0.89064000  1.0
  H  H280  1  0.41047000  0.23192000  0.86628000  1.0
  H  H281  1  0.52368000  0.34366000  0.64151000  1.0
  H  H282  1  0.52503000  0.36854000  0.61613000  1.0
  H  H283  1  0.47789000  0.39757000  0.63997000  1.0
  H  H284  1  0.47654000  0.37269000  0.66534000  1.0
  H  H285  1  0.65340000  0.07004000  0.76992000  1.0
  H  H286  1  0.67786000  0.04501000  0.76960000  1.0
  H  H287  1  0.70660000  0.07649000  0.72594000  1.0
  H  H288  1  0.68187000  0.10139000  0.72655000  1.0
  H  H289  1  0.48149000  0.44333000  0.59675000  1.0
  H  H290  1  0.48167000  0.46837000  0.57194000  1.0
  H  H291  1  0.52531000  0.43756000  0.54348000  1.0
  H  H292  1  0.52484000  0.41266000  0.56855000  1.0
  H  H293  1  0.34501000  0.23602000  0.93751000  1.0
  H  H294  1  0.32083000  0.23589000  0.96188000  1.0
  H  H295  1  0.28976000  0.28004000  0.93025000  1.0
  H  H296  1  0.31416000  0.27989000  0.90607000  1.0
  H  H297  1  0.49493000  0.78160000  0.77700000  1.0
  H  H298  1  0.47063000  0.72988000  0.75276000  1.0
  H  H299  1  0.51940000  0.75630000  0.72814000  1.0
  H  H300  1  0.52636000  0.72347000  0.72552000  1.0
  H  H301  1  0.52696000  0.69890000  0.70056000  1.0
  H  H302  1  0.46556000  0.69937000  0.69460000  1.0
  H  H303  1  0.46462000  0.72439000  0.71922000  1.0
  H  H304  1  0.48548000  0.76498000  0.80435000  1.0
  H  H305  1  0.46085000  0.76529000  0.82825000  1.0
  H  H306  1  0.41852000  0.74654000  0.78569000  1.0
  H  H307  1  0.44282000  0.74665000  0.76139000  1.0
  H  H308  1  0.50487000  0.80871000  0.75935000  1.0
  H  H309  1  0.52977000  0.83381000  0.75903000  1.0
  H  H310  1  0.57158000  0.79196000  0.74562000  1.0
  H  H311  1  0.54706000  0.76658000  0.74639000  1.0
  H  H312  1  0.38191000  0.73177000  0.83811000  1.0
  H  H313  1  0.35753000  0.73214000  0.86269000  1.0
  H  H314  1  0.38480000  0.78161000  0.88841000  1.0
  H  H315  1  0.40917000  0.78124000  0.86383000  1.0
  H  H316  1  0.60843000  0.84326000  0.72756000  1.0
  H  H317  1  0.63376000  0.86824000  0.72646000  1.0
  H  H318  1  0.60845000  0.89808000  0.77229000  1.0
  H  H319  1  0.58312000  0.87310000  0.77338000  1.0
  H  H320  1  0.47316000  0.64161000  0.66172000  1.0
  H  H321  1  0.47494000  0.61703000  0.63643000  1.0
  H  H322  1  0.52606000  0.64374000  0.61702000  1.0
  H  H323  1  0.52427000  0.66832000  0.64231000  1.0
  H  H324  1  0.34311000  0.77929000  0.93517000  1.0
  H  H325  1  0.31899000  0.77954000  0.95963000  1.0
  H  H326  1  0.28713000  0.73539000  0.92866000  1.0
  H  H327  1  0.31144000  0.73542000  0.90442000  1.0
  H  H328  1  0.52467000  0.60137000  0.56758000  1.0
  H  H329  1  0.52539000  0.57644000  0.54285000  1.0
  H  H330  1  0.48180000  0.54480000  0.57153000  1.0
  H  H331  1  0.48136000  0.56984000  0.59598000  1.0
  H  H332  1  0.65243000  0.94348000  0.76971000  1.0
  H  H333  1  0.67729000  0.96852000  0.76961000  1.0
  H  H334  1  0.70571000  0.93776000  0.72591000  1.0
  H  H335  1  0.68059000  0.91286000  0.72629000  1.0
  H  H336  1  0.28582000  0.47658000  0.49864000  1.0
  H  H337  1  0.32130000  0.47642000  0.49925000  1.0
  H  H338  1  0.32203000  0.53782000  0.49886000  1.0
  H  H339  1  0.28654000  0.53798000  0.49826000  1.0
  H  H340  1  0.21918000  0.53828000  0.49714000  1.0
  H  H341  1  0.18370000  0.53844000  0.49654000  1.0
  H  H342  1  0.18298000  0.47704000  0.49690000  1.0
  H  H343  1  0.21846000  0.47688000  0.49750000  1.0
  H  H344  1  0.38818000  0.50687000  0.46964000  1.0
  H  H345  1  0.42353000  0.50674000  0.47036000  1.0
  H  H346  1  0.42522000  0.50665000  0.53200000  1.0
  H  H347  1  0.38989000  0.50678000  0.53108000  1.0
  H  H348  1  0.11682000  0.50804000  0.52613000  1.0
  H  H349  1  0.08146000  0.50816000  0.52540000  1.0
  H  H350  1  0.07979000  0.50816000  0.46377000  1.0
  H  H351  1  0.11512000  0.50804000  0.46469000  1.0
  H  H352  1  0.78332000  0.50359000  0.46602000  1.0
  H  H353  1  0.81869000  0.50362000  0.46464000  1.0
  H  H354  1  0.82420000  0.51135000  0.52555000  1.0
  H  H355  1  0.78884000  0.51132000  0.52692000  1.0
  H  H356  1  0.72168000  0.51129000  0.52954000  1.0
  H  H357  1  0.68632000  0.51126000  0.53092000  1.0
  H  H358  1  0.68080000  0.50348000  0.47002000  1.0
  H  H359  1  0.71616000  0.50351000  0.46864000  1.0
  H  H360  1  0.88875000  0.53827000  0.49237000  1.0
  H  H361  1  0.92398000  0.53845000  0.49125000  1.0
  H  H362  1  0.92370000  0.47688000  0.49161000  1.0
  H  H363  1  0.88846000  0.47689000  0.49273000  1.0
  H  H364  1  0.61625000  0.47658000  0.50316000  1.0
  H  H365  1  0.58102000  0.47639000  0.50429000  1.0
  H  H366  1  0.58131000  0.53796000  0.50402000  1.0
  H  H367  1  0.61655000  0.53796000  0.50289000  1.0
  H  H368  1  0.25161000  0.97318000  0.02829000  1.0
  H  H369  1  0.25147000  0.93772000  0.02806000  1.0
  H  H370  1  0.25136000  0.93849000  0.96665000  1.0
  H  H371  1  0.25149000  0.97395000  0.96688000  1.0
  H  H372  1  0.25153000  0.04126000  0.96761000  1.0
  H  H373  1  0.25164000  0.07663000  0.96755000  1.0
  H  H374  1  0.25220000  0.07532000  0.02988000  1.0
  H  H375  1  0.25207000  0.03983000  0.02906000  1.0
  H  H376  1  0.28187000  0.87100000  0.99767000  1.0
  H  H377  1  0.28181000  0.83570000  0.99751000  1.0
  H  H378  1  0.22018000  0.83550000  0.99609000  1.0
  H  H379  1  0.22043000  0.87080000  0.99625000  1.0
  H  H380  1  0.22108000  0.14314000  0.99777000  1.0
  H  H381  1  0.22058000  0.17852000  0.99794000  1.0
  H  H382  1  0.28308000  0.17924000  0.99943000  1.0
  H  H383  1  0.28256000  0.14400000  0.99925000  1.0
  H  H384  1  0.25094000  0.54120000  0.96697000  1.0
  H  H385  1  0.25070000  0.57665000  0.96685000  1.0
  H  H386  1  0.25149000  0.57647000  0.02829000  1.0
  H  H387  1  0.25174000  0.54102000  0.02841000  1.0
  H  H388  1  0.25234000  0.47382000  0.02864000  1.0
  H  H389  1  0.25259000  0.43836000  0.02876000  1.0
  H  H390  1  0.25153000  0.43854000  0.96731000  1.0
  H  H391  1  0.25128000  0.47399000  0.96719000  1.0
  H  H392  1  0.25144000  0.64370000  0.02806000  1.0
  H  H393  1  0.25124000  0.67900000  0.02802000  1.0
  H  H394  1  0.24966000  0.67913000  0.96639000  1.0
  H  H395  1  0.24986000  0.64383000  0.96662000  1.0
  H  H396  1  0.25177000  0.37133000  0.96755000  1.0
  H  H397  1  0.25197000  0.33603000  0.96757000  1.0
  H  H398  1  0.25349000  0.33587000  0.02921000  1.0
  H  H399  1  0.25328000  0.37117000  0.02898000  1.0
  H  H400  1  0.75134000  0.03813000  0.96485000  1.0
  H  H401  1  0.75071000  0.03797000  0.92937000  1.0
  H  H402  1  0.74993000  0.97657000  0.92998000  1.0
  H  H403  1  0.75056000  0.97672000  0.96546000  1.0
  H  H404  1  0.75160000  0.97703000  0.03283000  1.0
  H  H405  1  0.75223000  0.97718000  0.06831000  1.0
  H  H406  1  0.75329000  0.03858000  0.06770000  1.0
  H  H407  1  0.75266000  0.03843000  0.03222000  1.0
  H  H408  1  0.77971000  0.00701000  0.86315000  1.0
  H  H409  1  0.77898000  0.00688000  0.82780000  1.0
  H  H410  1  0.71735000  0.00682000  0.82612000  1.0
  H  H411  1  0.71827000  0.00694000  0.86144000  1.0
  H  H412  1  0.78482000  0.00828000  0.13622000  1.0
  H  H413  1  0.78576000  0.00841000  0.17154000  1.0
  H  H414  1  0.72412000  0.00820000  0.16989000  1.0
  H  H415  1  0.72338000  0.00807000  0.13454000  1.0
  H  H416  1  0.78361000  0.00733000  0.46803000  1.0
  H  H417  1  0.78500000  0.00737000  0.43268000  1.0
  H  H418  1  0.72357000  0.00799000  0.42714000  1.0
  H  H419  1  0.72218000  0.00794000  0.46250000  1.0
  H  H420  1  0.71954000  0.00773000  0.52966000  1.0
  H  H421  1  0.71815000  0.00769000  0.56502000  1.0
  H  H422  1  0.77958000  0.00732000  0.57055000  1.0
  H  H423  1  0.78097000  0.00736000  0.53519000  1.0
  H  H424  1  0.75699000  0.03849000  0.36264000  1.0
  H  H425  1  0.75813000  0.03868000  0.32741000  1.0
  H  H426  1  0.75786000  0.97711000  0.32762000  1.0
  H  H427  1  0.75673000  0.97712000  0.36285000  1.0
  H  H428  1  0.74649000  0.03807000  0.63485000  1.0
  H  H429  1  0.74535000  0.03807000  0.67008000  1.0
  H  H430  1  0.74497000  0.97650000  0.67027000  1.0
  H  H431  1  0.74610000  0.97669000  0.63504000  1.0
  C  C432  1  0.44974000  0.50665000  0.50184000  1.0
  C  C433  1  0.50367000  0.54360000  0.54030000  1.0
  C  C434  1  0.50349000  0.46998000  0.54062000  1.0
  C  C435  1  0.55584000  0.50709000  0.50466000  1.0
  C  C436  1  0.50190000  0.46995000  0.46687000  1.0
  C  C437  1  0.50211000  0.54379000  0.46652000  1.0
  C  C438  1  0.99490000  0.24387000  0.24354000  1.0
  C  C439  1  0.00872000  0.24405000  0.22975000  1.0
  C  C440  1  0.02265000  0.25854000  0.22954000  1.0
  C  C441  1  0.02258000  0.27299000  0.24333000  1.0
  C  C442  1  0.00873000  0.27312000  0.25709000  1.0
  C  C443  1  0.99501000  0.25848000  0.25710000  1.0
  C  C444  1  0.05630000  0.26418000  0.21945000  1.0
  C  C445  1  0.07006000  0.26408000  0.20565000  1.0
  C  C446  1  0.06518000  0.25841000  0.18697000  1.0
  C  C447  1  0.04640000  0.25284000  0.18221000  1.0
  C  C448  1  0.03261000  0.25288000  0.19597000  1.0
  C  C449  1  0.03740000  0.25855000  0.21477000  1.0
  C  C450  1  0.97444000  0.22077000  0.26126000  1.0
  C  C451  1  0.96035000  0.20656000  0.26159000  1.0
  C  C452  1  0.95177000  0.19964000  0.24460000  1.0
  C  C453  1  0.95752000  0.20695000  0.22722000  1.0
  C  C454  1  0.97165000  0.22114000  0.22683000  1.0
  C  C455  1  0.98019000  0.22829000  0.24386000  1.0
  C  C456  1  0.99108000  0.29612000  0.27716000  1.0
  C  C457  1  0.99076000  0.31027000  0.29111000  1.0
  C  C458  1  0.00775000  0.31724000  0.29975000  1.0
  C  C459  1  0.02512000  0.31005000  0.29418000  1.0
  C  C460  1  0.02550000  0.29591000  0.28018000  1.0
  C  C461  1  0.00845000  0.28869000  0.27161000  1.0
  C  C462  1  0.93682000  0.18502000  0.24508000  1.0
  C  C463  1  0.92425000  0.17282000  0.24561000  1.0
  C  C464  1  0.07958000  0.25829000  0.17256000  1.0
  C  C465  1  0.09161000  0.25816000  0.16047000  1.0
  C  C466  1  0.00726000  0.33177000  0.31458000  1.0
  C  C467  1  0.00666000  0.34390000  0.32704000  1.0
  C  C468  1  0.90774000  0.14393000  0.23262000  1.0
  C  C469  1  0.89338000  0.13002000  0.23336000  1.0
  C  C470  1  0.88039000  0.13035000  0.24782000  1.0
  C  C471  1  0.88188000  0.14472000  0.26155000  1.0
  C  C472  1  0.89625000  0.15864000  0.26081000  1.0
  C  C473  1  0.90923000  0.15830000  0.24635000  1.0
  C  C474  1  0.01962000  0.37278000  0.34354000  1.0
  C  C475  1  0.01874000  0.38662000  0.35777000  1.0
  C  C476  1  0.00404000  0.38614000  0.37050000  1.0
  C  C477  1  0.99023000  0.37169000  0.36890000  1.0
  C  C478  1  0.99111000  0.35784000  0.35468000  1.0
  C  C479  1  0.00581000  0.35833000  0.34194000  1.0
  C  C480  1  0.10490000  0.24449000  0.13142000  1.0
  C  C481  1  0.11861000  0.24435000  0.11758000  1.0
  C  C482  1  0.13352000  0.25771000  0.11821000  1.0
  C  C483  1  0.13459000  0.27122000  0.13281000  1.0
  C  C484  1  0.12087000  0.27137000  0.14665000  1.0
  C  C485  1  0.10596000  0.25800000  0.14602000  1.0
  C  C486  1  0.86541000  0.11578000  0.24857000  1.0
  C  C487  1  0.85293000  0.10350000  0.24907000  1.0
  C  C488  1  0.14786000  0.25757000  0.10374000  1.0
  C  C489  1  0.15989000  0.25749000  0.09164000  1.0
  C  C490  1  0.00313000  0.40065000  0.38531000  1.0
  C  C491  1  0.00250000  0.41290000  0.39764000  1.0
  C  C492  1  0.82313000  0.09017000  0.26172000  1.0
  C  C493  1  0.80894000  0.07602000  0.26195000  1.0
  C  C494  1  0.80960000  0.06020000  0.24986000  1.0
  C  C495  1  0.82471000  0.05882000  0.23761000  1.0
  C  C496  1  0.83885000  0.07299000  0.23743000  1.0
  C  C497  1  0.83813000  0.08872000  0.24945000  1.0
  C  C498  1  0.19004000  0.26971000  0.07889000  1.0
  C  C499  1  0.20382000  0.26972000  0.06513000  1.0
  C  C500  1  0.20202000  0.25742000  0.04943000  1.0
  C  C501  1  0.18616000  0.24511000  0.04782000  1.0
  C  C502  1  0.17241000  0.24515000  0.06163000  1.0
  C  C503  1  0.17427000  0.25744000  0.07722000  1.0
  C  C504  1  0.98966000  0.42601000  0.42722000  1.0
  C  C505  1  0.98934000  0.44015000  0.44123000  1.0
  C  C506  1  0.00139000  0.45616000  0.44041000  1.0
  C  C507  1  0.01368000  0.45775000  0.42531000  1.0
  C  C508  1  0.01395000  0.44360000  0.41136000  1.0
  C  C509  1  0.00199000  0.42767000  0.41225000  1.0
  C  C510  1  0.02001000  0.75894000  0.22718000  1.0
  C  C511  1  0.00584000  0.77309000  0.22705000  1.0
  C  C512  1  0.99174000  0.77314000  0.24060000  1.0
  C  C513  1  0.99180000  0.75877000  0.25455000  1.0
  C  C514  1  0.00647000  0.74376000  0.25491000  1.0
  C  C515  1  0.02024000  0.74442000  0.24112000  1.0
  C  C516  1  0.95805000  0.78384000  0.24481000  1.0
  C  C517  1  0.94420000  0.79806000  0.24530000  1.0
  C  C518  1  0.94889000  0.81702000  0.24147000  1.0
  C  C519  1  0.96754000  0.82163000  0.23695000  1.0
  C  C520  1  0.98144000  0.80742000  0.23641000  1.0
  C  C521  1  0.97686000  0.78837000  0.24046000  1.0
  C  C522  1  0.05375000  0.75431000  0.21732000  1.0
  C  C523  1  0.06749000  0.75430000  0.20351000  1.0
  C  C524  1  0.06249000  0.75909000  0.18457000  1.0
  C  C525  1  0.04362000  0.76396000  0.17957000  1.0
  C  C526  1  0.02984000  0.76403000  0.19336000  1.0
  C  C527  1  0.03475000  0.75915000  0.21241000  1.0
  C  C528  1  0.02350000  0.72079000  0.27771000  1.0
  C  C529  1  0.02325000  0.70660000  0.29184000  1.0
  C  C530  1  0.00594000  0.69959000  0.29808000  1.0
  C  C531  1  0.98887000  0.70682000  0.29003000  1.0
  C  C532  1  0.98906000  0.72103000  0.27596000  1.0
  C  C533  1  0.00638000  0.72822000  0.26966000  1.0
  C  C534  1  0.07687000  0.75891000  0.17014000  1.0
  C  C535  1  0.08894000  0.75872000  0.15809000  1.0
  C  C536  1  0.93440000  0.83184000  0.24240000  1.0
  C  C537  1  0.92214000  0.84412000  0.24332000  1.0
  C  C538  1  0.00562000  0.68494000  0.31298000  1.0
  C  C539  1  0.00521000  0.67270000  0.32551000  1.0
  C  C540  1  0.10309000  0.77206000  0.12906000  1.0
  C  C541  1  0.11692000  0.77181000  0.11534000  1.0
  C  C542  1  0.13117000  0.75796000  0.11615000  1.0
  C  C543  1  0.13146000  0.74435000  0.13082000  1.0
  C  C544  1  0.11763000  0.74460000  0.14454000  1.0
  C  C545  1  0.10338000  0.75846000  0.14373000  1.0
  C  C546  1  0.99062000  0.65876000  0.35396000  1.0
  C  C547  1  0.98999000  0.64480000  0.36827000  1.0
  C  C548  1  0.00335000  0.63010000  0.36921000  1.0
  C  C549  1  0.01735000  0.62948000  0.35573000  1.0
  C  C550  1  0.01797000  0.64344000  0.34142000  1.0
  C  C551  1  0.00461000  0.65814000  0.34048000  1.0
  C  C552  1  0.90656000  0.87392000  0.23158000  1.0
  C  C553  1  0.89241000  0.88779000  0.23269000  1.0
  C  C554  1  0.87900000  0.88653000  0.24673000  1.0
  C  C555  1  0.87986000  0.87129000  0.25966000  1.0
  C  C556  1  0.89400000  0.85741000  0.25855000  1.0
  C  C557  1  0.90741000  0.85866000  0.24450000  1.0
  C  C558  1  0.14563000  0.75771000  0.10181000  1.0
  C  C559  1  0.15773000  0.75754000  0.08978000  1.0
  C  C560  1  0.86421000  0.90103000  0.24782000  1.0
  C  C561  1  0.85189000  0.91327000  0.24857000  1.0
  C  C562  1  0.00271000  0.61549000  0.38413000  1.0
  C  C563  1  0.00227000  0.60319000  0.39658000  1.0
  C  C564  1  0.18768000  0.74508000  0.07725000  1.0
  C  C565  1  0.20148000  0.74496000  0.06348000  1.0
  C  C566  1  0.19990000  0.75722000  0.04761000  1.0
  C  C567  1  0.18424000  0.76956000  0.04581000  1.0
  C  C568  1  0.17049000  0.76962000  0.05960000  1.0
  C  C569  1  0.17213000  0.75740000  0.07538000  1.0
  C  C570  1  0.82233000  0.92631000  0.26151000  1.0
  C  C571  1  0.80832000  0.94043000  0.26190000  1.0
  C  C572  1  0.80913000  0.95647000  0.24991000  1.0
  C  C573  1  0.82424000  0.95811000  0.23763000  1.0
  C  C574  1  0.83819000  0.94399000  0.23730000  1.0
  C  C575  1  0.83730000  0.92802000  0.24919000  1.0
  C  C576  1  0.01395000  0.57271000  0.41062000  1.0
  C  C577  1  0.01379000  0.55854000  0.42474000  1.0
  C  C578  1  0.00154000  0.55990000  0.43986000  1.0
  C  C579  1  0.98943000  0.57569000  0.44053000  1.0
  C  C580  1  0.98965000  0.58984000  0.42635000  1.0
  C  C581  1  0.00192000  0.58841000  0.41136000  1.0
  C  C582  1  0.99644000  0.27138000  0.72788000  1.0
  C  C583  1  0.98180000  0.25764000  0.72813000  1.0
  C  C584  1  0.98157000  0.24391000  0.74276000  1.0
  C  C585  1  0.99616000  0.24403000  0.75718000  1.0
  C  C586  1  0.01085000  0.25767000  0.75714000  1.0
  C  C587  1  0.01088000  0.27129000  0.74245000  1.0
  C  C588  1  0.95856000  0.22343000  0.76030000  1.0
  C  C589  1  0.94439000  0.20932000  0.76065000  1.0
  C  C590  1  0.93756000  0.20068000  0.74376000  1.0
  C  C591  1  0.94490000  0.20635000  0.72647000  1.0
  C  C592  1  0.95905000  0.22051000  0.72606000  1.0
  C  C593  1  0.96609000  0.22913000  0.74300000  1.0
  C  C594  1  0.01395000  0.29186000  0.70485000  1.0
  C  C595  1  0.01428000  0.30595000  0.69068000  1.0
  C  C596  1  0.99739000  0.31456000  0.68387000  1.0
  C  C597  1  0.98011000  0.30888000  0.69124000  1.0
  C  C598  1  0.97971000  0.29474000  0.70539000  1.0
  C  C599  1  0.99666000  0.28615000  0.71241000  1.0
  C  C600  1  0.04528000  0.26172000  0.76839000  1.0
  C  C601  1  0.05974000  0.26169000  0.78287000  1.0
  C  C602  1  0.05548000  0.25768000  0.80170000  1.0
  C  C603  1  0.03665000  0.25368000  0.80599000  1.0
  C  C604  1  0.02216000  0.25365000  0.79154000  1.0
  C  C605  1  0.02633000  0.25768000  0.77259000  1.0
  C  C606  1  0.99788000  0.32947000  0.66928000  1.0
  C  C607  1  0.99842000  0.34200000  0.65709000  1.0
  C  C608  1  0.92298000  0.18574000  0.74427000  1.0
  C  C609  1  0.91080000  0.17318000  0.74483000  1.0
  C  C610  1  0.07059000  0.25768000  0.81678000  1.0
  C  C611  1  0.08326000  0.25767000  0.82943000  1.0
  C  C612  1  0.98504000  0.35801000  0.62785000  1.0
  C  C613  1  0.98580000  0.37232000  0.61391000  1.0
  C  C614  1  0.00071000  0.38567000  0.61462000  1.0
  C  C615  1  0.01484000  0.38463000  0.62935000  1.0
  C  C616  1  0.01408000  0.37032000  0.64329000  1.0
  C  C617  1  0.99918000  0.35696000  0.64258000  1.0
  C  C618  1  0.09758000  0.24490000  0.85984000  1.0
  C  C619  1  0.11206000  0.24489000  0.87430000  1.0
  C  C620  1  0.12741000  0.25764000  0.87352000  1.0
  C  C621  1  0.12819000  0.27040000  0.85821000  1.0
  C  C622  1  0.11371000  0.27041000  0.84374000  1.0
  C  C623  1  0.09837000  0.25766000  0.84452000  1.0
  C  C624  1  0.88157000  0.15707000  0.73145000  1.0
  C  C625  1  0.86765000  0.14274000  0.73222000  1.0
  C  C626  1  0.86835000  0.12943000  0.74715000  1.0
  C  C627  1  0.88308000  0.13054000  0.76129000  1.0
  C  C628  1  0.89700000  0.14488000  0.76052000  1.0
  C  C629  1  0.89629000  0.15819000  0.74560000  1.0
  C  C630  1  0.00149000  0.40056000  0.60003000  1.0
  C  C631  1  0.00201000  0.41298000  0.58772000  1.0
  C  C632  1  0.85377000  0.11451000  0.74794000  1.0
  C  C633  1  0.84147000  0.10207000  0.74846000  1.0
  C  C634  1  0.14251000  0.25763000  0.88861000  1.0
  C  C635  1  0.15518000  0.25763000  0.90126000  1.0
  C  C636  1  0.01490000  0.44323000  0.57488000  1.0
  C  C637  1  0.01515000  0.45734000  0.56069000  1.0
  C  C638  1  0.00287000  0.45602000  0.54432000  1.0
  C  C639  1  0.99041000  0.44033000  0.54242000  1.0
  C  C640  1  0.99022000  0.42628000  0.55664000  1.0
  C  C641  1  0.00242000  0.42768000  0.57291000  1.0
  C  C642  1  0.82861000  0.07182000  0.76133000  1.0
  C  C643  1  0.81440000  0.05770000  0.76156000  1.0
  C  C644  1  0.79805000  0.05899000  0.74928000  1.0
  C  C645  1  0.79616000  0.07466000  0.73682000  1.0
  C  C646  1  0.81038000  0.08872000  0.73665000  1.0
  C  C647  1  0.82665000  0.08736000  0.74886000  1.0
  C  C648  1  0.18594000  0.26992000  0.91525000  1.0
  C  C649  1  0.20044000  0.26995000  0.92969000  1.0
  C  C650  1  0.19942000  0.25763000  0.94543000  1.0
  C  C651  1  0.18367000  0.24531000  0.94646000  1.0
  C  C652  1  0.16920000  0.24534000  0.93197000  1.0
  C  C653  1  0.17029000  0.25763000  0.91634000  1.0
  C  C654  1  0.00884000  0.75811000  0.75515000  1.0
  C  C655  1  0.99441000  0.77182000  0.75489000  1.0
  C  C656  1  0.98000000  0.77208000  0.74029000  1.0
  C  C657  1  0.98007000  0.75831000  0.72584000  1.0
  C  C658  1  0.99452000  0.74455000  0.72584000  1.0
  C  C659  1  0.00880000  0.74456000  0.74057000  1.0
  C  C660  1  0.94578000  0.78251000  0.73485000  1.0
  C  C661  1  0.93159000  0.79641000  0.73537000  1.0
  C  C662  1  0.93624000  0.81495000  0.74119000  1.0
  C  C663  1  0.95518000  0.81954000  0.74635000  1.0
  C  C664  1  0.96938000  0.80568000  0.74588000  1.0
  C  C665  1  0.96482000  0.78698000  0.74023000  1.0
  C  C666  1  0.03091000  0.74074000  0.77864000  1.0
  C  C667  1  0.04529000  0.74068000  0.79320000  1.0
  C  C668  1  0.05310000  0.75780000  0.80010000  1.0
  C  C669  1  0.04640000  0.77502000  0.79239000  1.0
  C  C670  1  0.03199000  0.77514000  0.77786000  1.0
  C  C671  1  0.02412000  0.75798000  0.77081000  1.0
  C  C672  1  0.01352000  0.72417000  0.70298000  1.0
  C  C673  1  0.01393000  0.71018000  0.68897000  1.0
  C  C674  1  0.99593000  0.70147000  0.68148000  1.0
  C  C675  1  0.97865000  0.70759000  0.68836000  1.0
  C  C676  1  0.97818000  0.72170000  0.70245000  1.0
  C  C677  1  0.99503000  0.73015000  0.71021000  1.0
  C  C678  1  0.06819000  0.75771000  0.81521000  1.0
  C  C679  1  0.08085000  0.75764000  0.82787000  1.0
  C  C680  1  0.92145000  0.82945000  0.74207000  1.0
  C  C681  1  0.90921000  0.84173000  0.74296000  1.0
  C  C682  1  0.99628000  0.68647000  0.66713000  1.0
  C  C683  1  0.99686000  0.67388000  0.65516000  1.0
  C  C684  1  0.09691000  0.77192000  0.85669000  1.0
  C  C685  1  0.11143000  0.77186000  0.87112000  1.0
  C  C686  1  0.12509000  0.75744000  0.87190000  1.0
  C  C687  1  0.12415000  0.74308000  0.85816000  1.0
  C  C688  1  0.10963000  0.74314000  0.84372000  1.0
  C  C689  1  0.09598000  0.75756000  0.84295000  1.0
  C  C690  1  0.98381000  0.65747000  0.62606000  1.0
  C  C691  1  0.98481000  0.64315000  0.61235000  1.0
  C  C692  1  0.99979000  0.63009000  0.61340000  1.0
  C  C693  1  0.01375000  0.63145000  0.62827000  1.0
  C  C694  1  0.01276000  0.64577000  0.64198000  1.0
  C  C695  1  0.99779000  0.65884000  0.64092000  1.0
  C  C696  1  0.89639000  0.87027000  0.75842000  1.0
  C  C697  1  0.88256000  0.88446000  0.75951000  1.0
  C  C698  1  0.86697000  0.88496000  0.74630000  1.0
  C  C699  1  0.86529000  0.87116000  0.73201000  1.0
  C  C700  1  0.87911000  0.85697000  0.73092000  1.0
  C  C701  1  0.89472000  0.85648000  0.74412000  1.0
  C  C702  1  0.14024000  0.75739000  0.88695000  1.0
  C  C703  1  0.15294000  0.75736000  0.89957000  1.0
  C  C704  1  0.85254000  0.89978000  0.74737000  1.0
  C  C705  1  0.84036000  0.91214000  0.74809000  1.0
  C  C706  1  0.00085000  0.61521000  0.59900000  1.0
  C  C707  1  0.00159000  0.60283000  0.58683000  1.0
  C  C708  1  0.18356000  0.74508000  0.91365000  1.0
  C  C709  1  0.19808000  0.74504000  0.92807000  1.0
  C  C710  1  0.19726000  0.75734000  0.94370000  1.0
  C  C711  1  0.18166000  0.76963000  0.94461000  1.0
  C  C712  1  0.16718000  0.76961000  0.93015000  1.0
  C  C713  1  0.16807000  0.75735000  0.91464000  1.0
  C  C714  1  0.80931000  0.92549000  0.73660000  1.0
  C  C715  1  0.79524000  0.93949000  0.73690000  1.0
  C  C716  1  0.79737000  0.95502000  0.74935000  1.0
  C  C717  1  0.81382000  0.95622000  0.76153000  1.0
  C  C718  1  0.82788000  0.94216000  0.76117000  1.0
  C  C719  1  0.82568000  0.92677000  0.74868000  1.0
  C  C720  1  0.01471000  0.57283000  0.57434000  1.0
  C  C721  1  0.01511000  0.55878000  0.56026000  1.0
  C  C722  1  0.00297000  0.55997000  0.54379000  1.0
  C  C723  1  0.99050000  0.57547000  0.54166000  1.0
  C  C724  1  0.99016000  0.58945000  0.55575000  1.0
  C  C725  1  0.00221000  0.58819000  0.57214000  1.0
  C  C726  1  0.78290000  0.04392000  0.74924000  1.0
  C  C727  1  0.78240000  0.97006000  0.74936000  1.0
  C  C728  1  0.74751000  0.00680000  0.80159000  1.0
  C  C729  1  0.70862000  0.97015000  0.74780000  1.0
  C  C730  1  0.70910000  0.04374000  0.74772000  1.0
  C  C731  1  0.74466000  0.00721000  0.69550000  1.0
  C  C732  1  0.52363000  0.24382000  0.25496000  1.0
  C  C733  1  0.52343000  0.25743000  0.26955000  1.0
  C  C734  1  0.50886000  0.27103000  0.26974000  1.0
  C  C735  1  0.49445000  0.27092000  0.25513000  1.0
  C  C736  1  0.49442000  0.25743000  0.24049000  1.0
  C  C737  1  0.50905000  0.24393000  0.24052000  1.0
  C  C738  1  0.49136000  0.29118000  0.29261000  1.0
  C  C739  1  0.49103000  0.30520000  0.30668000  1.0
  C  C740  1  0.50793000  0.31395000  0.31351000  1.0
  C  C741  1  0.52523000  0.30846000  0.30627000  1.0
  C  C742  1  0.52562000  0.29439000  0.29222000  1.0
  C  C743  1  0.50866000  0.28567000  0.28516000  1.0
  C  C744  1  0.54651000  0.22366000  0.23749000  1.0
  C  C745  1  0.56057000  0.20965000  0.23718000  1.0
  C  C746  1  0.56735000  0.20090000  0.25408000  1.0
  C  C747  1  0.56008000  0.20640000  0.27137000  1.0
  C  C748  1  0.54603000  0.22046000  0.27174000  1.0
  C  C749  1  0.53903000  0.22917000  0.25477000  1.0
  C  C750  1  0.48313000  0.25358000  0.20607000  1.0
  C  C751  1  0.46865000  0.25363000  0.19160000  1.0
  C  C752  1  0.44984000  0.25747000  0.19584000  1.0
  C  C753  1  0.44558000  0.26128000  0.21465000  1.0
  C  C754  1  0.46003000  0.26129000  0.22915000  1.0
  C  C755  1  0.47896000  0.25743000  0.22500000  1.0
  C  C756  1  0.58180000  0.18604000  0.25360000  1.0
  C  C757  1  0.59387000  0.17355000  0.25304000  1.0
  C  C758  1  0.50743000  0.32882000  0.32797000  1.0
  C  C759  1  0.50684000  0.34132000  0.34004000  1.0
  C  C760  1  0.43475000  0.25749000  0.18072000  1.0
  C  C761  1  0.42209000  0.25752000  0.16805000  1.0
  C  C762  1  0.62291000  0.15734000  0.26641000  1.0
  C  C763  1  0.63670000  0.14309000  0.26560000  1.0
  C  C764  1  0.63591000  0.13003000  0.25060000  1.0
  C  C765  1  0.62123000  0.13131000  0.23643000  1.0
  C  C766  1  0.60744000  0.14556000  0.23725000  1.0
  C  C767  1  0.60823000  0.15863000  0.25224000  1.0
  C  C768  1  0.39207000  0.27061000  0.15335000  1.0
  C  C769  1  0.37760000  0.27064000  0.13887000  1.0
  C  C770  1  0.37796000  0.25762000  0.12391000  1.0
  C  C771  1  0.39288000  0.24456000  0.12350000  1.0
  C  C772  1  0.40735000  0.24453000  0.13797000  1.0
  C  C773  1  0.40699000  0.25755000  0.15294000  1.0
  C  C774  1  0.52008000  0.35747000  0.36921000  1.0
  C  C775  1  0.51923000  0.37173000  0.38300000  1.0
  C  C776  1  0.50431000  0.38486000  0.38211000  1.0
  C  C777  1  0.49025000  0.38364000  0.36731000  1.0
  C  C778  1  0.49110000  0.36938000  0.35351000  1.0
  C  C779  1  0.50601000  0.35624000  0.35442000  1.0
  C  C780  1  0.65036000  0.11520000  0.24976000  1.0
  C  C781  1  0.66256000  0.10284000  0.24919000  1.0
  C  C782  1  0.50344000  0.39970000  0.39656000  1.0
  C  C783  1  0.50285000  0.41207000  0.40877000  1.0
  C  C784  1  0.36285000  0.25765000  0.10880000  1.0
  C  C785  1  0.35019000  0.25767000  0.09614000  1.0
  C  C786  1  0.67515000  0.07280000  0.23628000  1.0
  C  C787  1  0.68924000  0.05877000  0.23602000  1.0
  C  C788  1  0.70564000  0.06002000  0.24827000  1.0
  C  C789  1  0.70768000  0.07557000  0.26070000  1.0
  C  C790  1  0.69358000  0.08955000  0.26091000  1.0
  C  C791  1  0.67727000  0.08822000  0.24875000  1.0
  C  C792  1  0.48991000  0.44209000  0.42136000  1.0
  C  C793  1  0.48963000  0.45614000  0.43546000  1.0
  C  C794  1  0.50187000  0.45492000  0.45186000  1.0
  C  C795  1  0.51431000  0.43940000  0.45391000  1.0
  C  C796  1  0.51454000  0.42541000  0.43980000  1.0
  C  C797  1  0.50238000  0.42670000  0.42348000  1.0
  C  C798  1  0.33604000  0.24546000  0.06549000  1.0
  C  C799  1  0.32158000  0.24545000  0.05100000  1.0
  C  C800  1  0.30597000  0.25771000  0.05190000  1.0
  C  C801  1  0.30509000  0.26998000  0.06755000  1.0
  C  C802  1  0.31958000  0.26994000  0.08200000  1.0
  C  C803  1  0.33509000  0.25769000  0.08103000  1.0
  C  C804  1  0.50732000  0.74296000  0.26719000  1.0
  C  C805  1  0.49284000  0.74310000  0.25266000  1.0
  C  C806  1  0.49255000  0.75708000  0.23830000  1.0
  C  C807  1  0.50699000  0.77100000  0.23852000  1.0
  C  C808  1  0.52161000  0.77108000  0.25292000  1.0
  C  C809  1  0.52163000  0.75706000  0.26727000  1.0
  C  C810  1  0.46898000  0.77433000  0.21624000  1.0
  C  C811  1  0.45445000  0.77433000  0.20183000  1.0
  C  C812  1  0.44774000  0.75720000  0.19391000  1.0
  C  C813  1  0.45562000  0.74004000  0.20052000  1.0
  C  C814  1  0.47013000  0.73998000  0.21495000  1.0
  C  C815  1  0.47698000  0.75714000  0.22294000  1.0
  C  C816  1  0.51265000  0.73233000  0.30143000  1.0
  C  C817  1  0.51234000  0.71825000  0.31565000  1.0
  C  C818  1  0.50688000  0.69959000  0.31104000  1.0
  C  C819  1  0.50181000  0.69507000  0.29210000  1.0
  C  C820  1  0.50205000  0.70910000  0.27787000  1.0
  C  C821  1  0.50741000  0.72790000  0.28240000  1.0
  C  C822  1  0.54412000  0.79425000  0.26991000  1.0
  C  C823  1  0.55827000  0.80842000  0.26972000  1.0
  C  C824  1  0.56557000  0.81439000  0.25250000  1.0
  C  C825  1  0.55871000  0.80603000  0.23548000  1.0
  C  C826  1  0.54455000  0.79190000  0.23562000  1.0
  C  C827  1  0.53704000  0.78592000  0.25283000  1.0
  C  C828  1  0.50635000  0.68492000  0.32587000  1.0
  C  C829  1  0.50582000  0.67254000  0.33822000  1.0
  C  C830  1  0.43263000  0.75724000  0.17883000  1.0
  C  C831  1  0.41996000  0.75726000  0.16617000  1.0
  C  C832  1  0.58017000  0.82933000  0.25222000  1.0
  C  C833  1  0.59237000  0.84188000  0.25184000  1.0
  C  C834  1  0.49113000  0.64343000  0.35149000  1.0
  C  C835  1  0.49047000  0.62920000  0.36552000  1.0
  C  C836  1  0.50379000  0.62918000  0.38102000  1.0
  C  C837  1  0.51777000  0.64347000  0.38242000  1.0
  C  C838  1  0.51843000  0.65770000  0.36839000  1.0
  C  C839  1  0.50512000  0.65772000  0.35288000  1.0
  C  C840  1  0.60632000  0.87025000  0.23641000  1.0
  C  C841  1  0.62028000  0.88458000  0.23581000  1.0
  C  C842  1  0.63490000  0.88561000  0.25007000  1.0
  C  C843  1  0.63547000  0.87223000  0.26493000  1.0
  C  C844  1  0.62152000  0.85790000  0.26553000  1.0
  C  C845  1  0.60691000  0.85687000  0.25127000  1.0
  C  C846  1  0.39090000  0.74297000  0.15044000  1.0
  C  C847  1  0.37643000  0.74299000  0.13596000  1.0
  C  C848  1  0.37586000  0.75732000  0.12203000  1.0
  C  C849  1  0.38983000  0.77164000  0.12267000  1.0
  C  C850  1  0.40429000  0.77163000  0.13715000  1.0
  C  C851  1  0.40486000  0.75729000  0.15107000  1.0
  C  C852  1  0.50314000  0.61433000  0.39567000  1.0
  C  C853  1  0.50271000  0.60193000  0.40800000  1.0
  C  C854  1  0.36077000  0.75734000  0.10693000  1.0
  C  C855  1  0.34812000  0.75735000  0.09426000  1.0
  C  C856  1  0.64950000  0.90051000  0.24945000  1.0
  C  C857  1  0.66182000  0.91295000  0.24904000  1.0
  C  C858  1  0.51466000  0.58862000  0.43905000  1.0
  C  C859  1  0.51452000  0.57455000  0.45326000  1.0
  C  C860  1  0.50206000  0.55887000  0.45139000  1.0
  C  C861  1  0.48973000  0.55755000  0.43507000  1.0
  C  C862  1  0.48991000  0.57167000  0.42088000  1.0
  C  C863  1  0.50239000  0.58723000  0.42282000  1.0
  C  C864  1  0.33412000  0.76962000  0.06352000  1.0
  C  C865  1  0.31966000  0.76965000  0.04904000  1.0
  C  C866  1  0.30389000  0.75734000  0.05006000  1.0
  C  C867  1  0.30286000  0.74504000  0.06581000  1.0
  C  C868  1  0.31736000  0.74507000  0.08026000  1.0
  C  C869  1  0.33302000  0.75735000  0.07916000  1.0
  C  C870  1  0.69286000  0.92633000  0.26098000  1.0
  C  C871  1  0.70707000  0.94041000  0.26085000  1.0
  C  C872  1  0.70520000  0.95608000  0.24840000  1.0
  C  C873  1  0.68887000  0.95737000  0.23608000  1.0
  C  C874  1  0.67468000  0.94323000  0.23626000  1.0
  C  C875  1  0.67662000  0.92768000  0.24872000  1.0
  C  C876  1  0.00138000  0.47123000  0.45540000  1.0
  C  C877  1  0.94916000  0.50775000  0.49095000  1.0
  C  C878  1  0.00286000  0.47108000  0.52919000  1.0
  C  C879  1  0.00301000  0.54493000  0.52879000  1.0
  C  C880  1  0.05526000  0.50821000  0.49391000  1.0
  C  C881  1  0.00156000  0.54482000  0.45502000  1.0
  C  C882  1  0.51084000  0.24175000  0.75445000  1.0
  C  C883  1  0.51066000  0.25620000  0.74054000  1.0
  C  C884  1  0.49709000  0.27078000  0.74042000  1.0
  C  C885  1  0.48360000  0.27087000  0.75452000  1.0
  C  C886  1  0.48352000  0.25653000  0.76859000  1.0
  C  C887  1  0.49723000  0.24202000  0.76845000  1.0
  C  C888  1  0.49326000  0.30504000  0.72976000  1.0
  C  C889  1  0.49370000  0.31927000  0.71569000  1.0
  C  C890  1  0.49790000  0.31471000  0.69701000  1.0
  C  C891  1  0.50157000  0.29579000  0.69249000  1.0
  C  C892  1  0.50119000  0.28154000  0.70652000  1.0
  C  C893  1  0.49710000  0.28601000  0.72535000  1.0
  C  C894  1  0.53426000  0.21937000  0.77132000  1.0
  C  C895  1  0.54831000  0.20529000  0.77098000  1.0
  C  C896  1  0.55376000  0.19792000  0.75364000  1.0
  C  C897  1  0.54499000  0.20467000  0.73664000  1.0
  C  C898  1  0.53099000  0.21876000  0.73692000  1.0
  C  C899  1  0.52551000  0.22633000  0.75427000  1.0
  C  C900  1  0.46050000  0.23957000  0.78959000  1.0
  C  C901  1  0.44670000  0.23975000  0.80334000  1.0
  C  C902  1  0.44103000  0.25692000  0.81119000  1.0
  C  C903  1  0.44929000  0.27395000  0.80515000  1.0
  C  C904  1  0.46306000  0.27384000  0.79137000  1.0
  C  C905  1  0.46884000  0.25663000  0.78342000  1.0
  C  C906  1  0.56859000  0.18340000  0.75319000  1.0
  C  C907  1  0.58104000  0.17127000  0.75264000  1.0
  C  C908  1  0.49856000  0.32956000  0.68232000  1.0
  C  C909  1  0.49921000  0.34191000  0.66993000  1.0
  C  C910  1  0.42657000  0.25707000  0.82554000  1.0
  C  C911  1  0.41445000  0.25721000  0.83755000  1.0
  C  C912  1  0.60862000  0.15717000  0.73713000  1.0
  C  C913  1  0.62280000  0.14329000  0.73631000  1.0
  C  C914  1  0.62439000  0.12894000  0.75020000  1.0
  C  C915  1  0.61168000  0.12859000  0.76493000  1.0
  C  C916  1  0.59750000  0.14247000  0.76575000  1.0
  C  C917  1  0.59590000  0.15681000  0.75185000  1.0
  C  C918  1  0.38622000  0.27171000  0.85163000  1.0
  C  C919  1  0.37237000  0.27186000  0.86534000  1.0
  C  C920  1  0.37216000  0.25768000  0.87943000  1.0
  C  C921  1  0.38592000  0.24335000  0.87968000  1.0
  C  C922  1  0.39977000  0.24320000  0.86597000  1.0
  C  C923  1  0.39998000  0.25738000  0.85188000  1.0
  C  C924  1  0.51361000  0.35550000  0.64121000  1.0
  C  C925  1  0.51437000  0.36950000  0.62694000  1.0
  C  C926  1  0.50155000  0.38467000  0.62642000  1.0
  C  C927  1  0.48797000  0.38574000  0.64028000  1.0
  C  C928  1  0.48722000  0.37175000  0.65455000  1.0
  C  C929  1  0.50003000  0.35657000  0.65507000  1.0
  C  C930  1  0.63915000  0.11439000  0.74935000  1.0
  C  C931  1  0.65145000  0.10212000  0.74876000  1.0
  C  C932  1  0.50228000  0.39928000  0.61150000  1.0
  C  C933  1  0.50276000  0.41159000  0.59905000  1.0
  C  C934  1  0.35769000  0.25783000  0.89377000  1.0
  C  C935  1  0.34559000  0.25791000  0.90580000  1.0
  C  C936  1  0.66509000  0.07142000  0.76024000  1.0
  C  C937  1  0.67901000  0.05726000  0.75999000  1.0
  C  C938  1  0.69413000  0.05882000  0.74771000  1.0
  C  C939  1  0.69500000  0.07481000  0.73567000  1.0
  C  C940  1  0.68101000  0.08896000  0.73597000  1.0
  C  C941  1  0.66602000  0.08733000  0.74828000  1.0
  C  C942  1  0.49113000  0.44210000  0.58504000  1.0
  C  C943  1  0.49130000  0.45626000  0.57092000  1.0
  C  C944  1  0.50353000  0.45489000  0.55578000  1.0
  C  C945  1  0.51560000  0.43909000  0.55509000  1.0
  C  C946  1  0.51539000  0.42494000  0.56927000  1.0
  C  C947  1  0.50314000  0.42638000  0.58428000  1.0
  C  C948  1  0.33286000  0.24569000  0.93594000  1.0
  C  C949  1  0.31910000  0.24567000  0.94973000  1.0
  C  C950  1  0.30341000  0.25797000  0.94796000  1.0
  C  C951  1  0.30180000  0.27026000  0.93211000  1.0
  C  C952  1  0.31560000  0.27023000  0.91835000  1.0
  C  C953  1  0.33118000  0.25796000  0.92019000  1.0
  C  C954  1  0.48089000  0.75593000  0.76629000  1.0
  C  C955  1  0.48105000  0.74154000  0.75245000  1.0
  C  C956  1  0.49510000  0.74135000  0.73890000  1.0
  C  C957  1  0.50899000  0.75585000  0.73920000  1.0
  C  C958  1  0.50906000  0.77036000  0.75285000  1.0
  C  C959  1  0.49495000  0.77031000  0.76634000  1.0
  C  C960  1  0.51285000  0.71855000  0.71873000  1.0
  C  C961  1  0.51326000  0.70448000  0.70470000  1.0
  C  C962  1  0.49632000  0.69754000  0.69593000  1.0
  C  C963  1  0.47891000  0.70468000  0.70144000  1.0
  C  C964  1  0.47844000  0.71874000  0.71552000  1.0
  C  C965  1  0.49543000  0.72591000  0.72424000  1.0
  C  C966  1  0.47079000  0.76116000  0.79989000  1.0
  C  C967  1  0.45690000  0.76118000  0.81355000  1.0
  C  C968  1  0.43807000  0.75595000  0.80856000  1.0
  C  C969  1  0.43325000  0.75061000  0.78977000  1.0
  C  C970  1  0.44711000  0.75052000  0.77607000  1.0
  C  C971  1  0.46605000  0.75585000  0.78096000  1.0
  C  C972  1  0.51951000  0.80472000  0.75661000  1.0
  C  C973  1  0.53355000  0.81901000  0.75627000  1.0
  C  C974  1  0.55229000  0.81453000  0.75227000  1.0
  C  C975  1  0.55691000  0.79562000  0.74867000  1.0
  C  C976  1  0.54293000  0.78131000  0.74896000  1.0
  C  C977  1  0.52405000  0.78570000  0.75288000  1.0
  C  C978  1  0.42358000  0.75609000  0.82288000  1.0
  C  C979  1  0.41151000  0.75626000  0.83493000  1.0
  C  C980  1  0.49692000  0.68306000  0.68105000  1.0
  C  C981  1  0.49761000  0.67097000  0.66856000  1.0
  C  C982  1  0.56694000  0.82944000  0.75174000  1.0
  C  C983  1  0.57930000  0.84185000  0.75121000  1.0
  C  C984  1  0.38258000  0.74275000  0.84914000  1.0
  C  C985  1  0.36886000  0.74295000  0.86298000  1.0
  C  C986  1  0.36957000  0.75690000  0.87716000  1.0
  C  C987  1  0.38412000  0.77065000  0.87737000  1.0
  C  C988  1  0.39784000  0.77044000  0.86353000  1.0
  C  C989  1  0.39713000  0.75649000  0.84936000  1.0
  C  C990  1  0.60839000  0.85530000  0.73739000  1.0
  C  C991  1  0.62264000  0.86935000  0.73677000  1.0
  C  C992  1  0.62274000  0.88478000  0.74930000  1.0
  C  C993  1  0.60847000  0.88605000  0.76243000  1.0
  C  C994  1  0.59422000  0.87200000  0.76305000  1.0
  C  C995  1  0.59413000  0.85657000  0.75053000  1.0
  C  C996  1  0.48479000  0.64212000  0.65191000  1.0
  C  C997  1  0.48579000  0.62829000  0.63768000  1.0
  C  C998  1  0.50061000  0.62879000  0.62508000  1.0
  C  C999  1  0.51441000  0.64324000  0.62681000  1.0
  C  C1000  1  0.51340000  0.65707000  0.64104000  1.0
  C  C1001  1  0.49859000  0.65657000  0.65365000  1.0
  C  C1002  1  0.35524000  0.75710000  0.89163000  1.0
  C  C1003  1  0.34323000  0.75724000  0.90375000  1.0
  C  C1004  1  0.50165000  0.61428000  0.61029000  1.0
  C  C1005  1  0.50237000  0.60202000  0.59796000  1.0
  C  C1006  1  0.63764000  0.89944000  0.74871000  1.0
  C  C1007  1  0.65009000  0.91177000  0.74832000  1.0
  C  C1008  1  0.33079000  0.76966000  0.93377000  1.0
  C  C1009  1  0.31707000  0.76975000  0.94761000  1.0
  C  C1010  1  0.30118000  0.75748000  0.94604000  1.0
  C  C1011  1  0.29932000  0.74515000  0.93036000  1.0
  C  C1012  1  0.31308000  0.74512000  0.91657000  1.0
  C  C1013  1  0.32887000  0.75735000  0.91820000  1.0
  C  C1014  1  0.51528000  0.58889000  0.56842000  1.0
  C  C1015  1  0.51566000  0.57472000  0.55444000  1.0
  C  C1016  1  0.50366000  0.55868000  0.55528000  1.0
  C  C1017  1  0.49137000  0.55708000  0.57039000  1.0
  C  C1018  1  0.49106000  0.57125000  0.58431000  1.0
  C  C1019  1  0.50296000  0.58722000  0.58339000  1.0
  C  C1020  1  0.66414000  0.94226000  0.76007000  1.0
  C  C1021  1  0.67829000  0.95643000  0.75996000  1.0
  C  C1022  1  0.69343000  0.95507000  0.74773000  1.0
  C  C1023  1  0.69410000  0.93928000  0.73561000  1.0
  C  C1024  1  0.67990000  0.92513000  0.73578000  1.0
  C  C1025  1  0.66488000  0.92656000  0.74802000  1.0
  C  C1026  1  0.28868000  0.25792000  0.96268000  1.0
  C  C1027  1  0.25246000  0.20472000  0.99878000  1.0
  C  C1028  1  0.29052000  0.25772000  0.03646000  1.0
  C  C1029  1  0.21672000  0.25746000  0.03469000  1.0
  C  C1030  1  0.25283000  0.31065000  0.99848000  1.0
  C  C1031  1  0.21487000  0.25765000  0.96086000  1.0
  C  C1032  1  0.72065000  0.04502000  0.24830000  1.0
  C  C1033  1  0.79443000  0.04510000  0.24984000  1.0
  C  C1034  1  0.75850000  0.00797000  0.30219000  1.0
  C  C1035  1  0.79413000  0.97150000  0.24995000  1.0
  C  C1036  1  0.72033000  0.97118000  0.24845000  1.0
  C  C1037  1  0.75561000  0.00836000  0.19608000  1.0
  C  C1038  1  0.25088000  0.81030000  0.99673000  1.0
  C  C1039  1  0.28650000  0.75748000  0.96080000  1.0
  C  C1040  1  0.28844000  0.75734000  0.03463000  1.0
  C  C1041  1  0.25037000  0.70436000  0.99710000  1.0
  C  C1042  1  0.21462000  0.75720000  0.03289000  1.0
  C  C1043  1  0.21273000  0.75733000  0.95911000  1.0
  C  C1044  1  0.26147000  0.50739000  0.49803000  1.0
  C  C1045  1  0.24353000  0.50747000  0.49773000  1.0
  C  C1046  1  0.29356000  0.49018000  0.49868000  1.0
  C  C1047  1  0.31388000  0.49008000  0.49903000  1.0
  C  C1048  1  0.32473000  0.50710000  0.49910000  1.0
  C  C1049  1  0.31429000  0.52422000  0.49882000  1.0
  C  C1050  1  0.29396000  0.52431000  0.49847000  1.0
  C  C1051  1  0.28312000  0.50729000  0.49840000  1.0
  C  C1052  1  0.21144000  0.52468000  0.49709000  1.0
  C  C1053  1  0.19112000  0.52477000  0.49675000  1.0
  C  C1054  1  0.18027000  0.50776000  0.49667000  1.0
  C  C1055  1  0.19072000  0.49064000  0.49695000  1.0
  C  C1056  1  0.21104000  0.49055000  0.49729000  1.0
  C  C1057  1  0.22189000  0.50757000  0.49737000  1.0
  C  C1058  1  0.34638000  0.50701000  0.49949000  1.0
  C  C1059  1  0.36432000  0.50693000  0.49983000  1.0
  C  C1060  1  0.15863000  0.50785000  0.49628000  1.0
  C  C1061  1  0.14068000  0.50793000  0.49594000  1.0
  C  C1062  1  0.39614000  0.50682000  0.48346000  1.0
  C  C1063  1  0.41647000  0.50674000  0.48391000  1.0
  C  C1064  1  0.42765000  0.50668000  0.50125000  1.0
  C  C1065  1  0.41741000  0.50669000  0.51809000  1.0
  C  C1066  1  0.39709000  0.50676000  0.51761000  1.0
  C  C1067  1  0.38597000  0.50683000  0.50030000  1.0
  C  C1068  1  0.10885000  0.50807000  0.51231000  1.0
  C  C1069  1  0.08852000  0.50814000  0.51185000  1.0
  C  C1070  1  0.07735000  0.50818000  0.49451000  1.0
  C  C1071  1  0.08759000  0.50814000  0.47767000  1.0
  C  C1072  1  0.10791000  0.50807000  0.47816000  1.0
  C  C1073  1  0.11903000  0.50803000  0.49548000  1.0
  C  C1074  1  0.76145000  0.50743000  0.49743000  1.0
  C  C1075  1  0.74356000  0.50742000  0.49813000  1.0
  C  C1076  1  0.79210000  0.50531000  0.47925000  1.0
  C  C1077  1  0.81236000  0.50533000  0.47846000  1.0
  C  C1078  1  0.82450000  0.50748000  0.49498000  1.0
  C  C1079  1  0.81542000  0.50963000  0.51232000  1.0
  C  C1080  1  0.79517000  0.50961000  0.51310000  1.0
  C  C1081  1  0.78302000  0.50745000  0.49659000  1.0
  C  C1082  1  0.71291000  0.50956000  0.51631000  1.0
  C  C1083  1  0.69265000  0.50954000  0.51710000  1.0
  C  C1084  1  0.68050000  0.50737000  0.50059000  1.0
  C  C1085  1  0.68958000  0.50522000  0.48324000  1.0
  C  C1086  1  0.70984000  0.50523000  0.48245000  1.0
  C  C1087  1  0.72199000  0.50740000  0.49897000  1.0
  C  C1088  1  0.84608000  0.50751000  0.49414000  1.0
  C  C1089  1  0.86397000  0.50753000  0.49345000  1.0
  C  C1090  1  0.65893000  0.50735000  0.50142000  1.0
  C  C1091  1  0.64104000  0.50732000  0.50211000  1.0
  C  C1092  1  0.89624000  0.52465000  0.49218000  1.0
  C  C1093  1  0.91651000  0.52472000  0.49152000  1.0
  C  C1094  1  0.92711000  0.50768000  0.49128000  1.0
  C  C1095  1  0.91635000  0.49058000  0.49171000  1.0
  C  C1096  1  0.89608000  0.49055000  0.49237000  1.0
  C  C1097  1  0.88554000  0.50758000  0.49265000  1.0
  C  C1098  1  0.60876000  0.49020000  0.50338000  1.0
  C  C1099  1  0.58850000  0.49013000  0.50405000  1.0
  C  C1100  1  0.57790000  0.50717000  0.50431000  1.0
  C  C1101  1  0.58866000  0.52427000  0.50389000  1.0
  C  C1102  1  0.60892000  0.52430000  0.50323000  1.0
  C  C1103  1  0.61946000  0.50728000  0.50293000  1.0
  C  C1104  1  0.25164000  0.99820000  0.99776000  1.0
  C  C1105  1  0.25171000  0.01612000  0.99795000  1.0
  C  C1106  1  0.25155000  0.96577000  0.01461000  1.0
  C  C1107  1  0.25147000  0.94547000  0.01448000  1.0
  C  C1108  1  0.25140000  0.93507000  0.99733000  1.0
  C  C1109  1  0.25141000  0.94590000  0.98033000  1.0
  C  C1110  1  0.25149000  0.96620000  0.98046000  1.0
  C  C1111  1  0.25156000  0.97660000  0.99761000  1.0
  C  C1112  1  0.25168000  0.04869000  0.98128000  1.0
  C  C1113  1  0.25175000  0.06903000  0.98122000  1.0
  C  C1114  1  0.25194000  0.07962000  0.99824000  1.0
  C  C1115  1  0.25205000  0.06807000  0.01611000  1.0
  C  C1116  1  0.25198000  0.04782000  0.01562000  1.0
  C  C1117  1  0.25179000  0.03772000  0.99827000  1.0
  C  C1118  1  0.25132000  0.91346000  0.99720000  1.0
  C  C1119  1  0.25125000  0.89555000  0.99709000  1.0
  C  C1120  1  0.25197000  0.10123000  0.99831000  1.0
  C  C1121  1  0.25196000  0.11914000  0.99839000  1.0
  C  C1122  1  0.26819000  0.86338000  0.99731000  1.0
  C  C1123  1  0.26812000  0.84308000  0.99722000  1.0
  C  C1124  1  0.25098000  0.83235000  0.99678000  1.0
  C  C1125  1  0.23394000  0.84297000  0.99643000  1.0
  C  C1126  1  0.23404000  0.86327000  0.99652000  1.0
  C  C1127  1  0.25116000  0.87395000  0.99697000  1.0
  C  C1128  1  0.23462000  0.15101000  0.99814000  1.0
  C  C1129  1  0.23433000  0.17126000  0.99823000  1.0
  C  C1130  1  0.25234000  0.18270000  0.99872000  1.0
  C  C1131  1  0.26926000  0.17189000  0.99907000  1.0
  C  C1132  1  0.26896000  0.15156000  0.99896000  1.0
  C  C1133  1  0.25185000  0.14074000  0.99850000  1.0
  C  C1134  1  0.25151000  0.51647000  0.99777000  1.0
  C  C1135  1  0.25164000  0.49855000  0.99783000  1.0
  C  C1136  1  0.25107000  0.54874000  0.98058000  1.0
  C  C1137  1  0.25093000  0.56903000  0.98052000  1.0
  C  C1138  1  0.25108000  0.57960000  0.99756000  1.0
  C  C1139  1  0.25137000  0.56893000  0.01468000  1.0
  C  C1140  1  0.25151000  0.54864000  0.01475000  1.0
  C  C1141  1  0.25136000  0.53807000  0.99770000  1.0
  C  C1142  1  0.25216000  0.46628000  0.01502000  1.0
  C  C1143  1  0.25230000  0.44598000  0.01509000  1.0
  C  C1144  1  0.25208000  0.43541000  0.99804000  1.0
  C  C1145  1  0.25171000  0.44608000  0.98092000  1.0
  C  C1146  1  0.25157000  0.46638000  0.98085000  1.0
  C  C1147  1  0.25179000  0.47695000  0.99790000  1.0
  C  C1148  1  0.25093000  0.60121000  0.99749000  1.0
  C  C1149  1  0.25081000  0.61912000  0.99743000  1.0
  C  C1150  1  0.25223000  0.41381000  0.99812000  1.0
  C  C1151  1  0.25236000  0.39589000  0.99818000  1.0
  C  C1152  1  0.25104000  0.65131000  0.01439000  1.0
  C  C1153  1  0.25092000  0.67160000  0.01433000  1.0
  C  C1154  1  0.25043000  0.68232000  0.99719000  1.0
  C  C1155  1  0.25005000  0.67168000  0.98014000  1.0
  C  C1156  1  0.25016000  0.65138000  0.98024000  1.0
  C  C1157  1  0.25067000  0.64072000  0.99735000  1.0
  C  C1158  1  0.25215000  0.36371000  0.98122000  1.0
  C  C1159  1  0.25227000  0.34342000  0.98127000  1.0
  C  C1160  1  0.25276000  0.33269000  0.99840000  1.0
  C  C1161  1  0.25311000  0.34333000  0.01546000  1.0
  C  C1162  1  0.25299000  0.36363000  0.01537000  1.0
  C  C1163  1  0.25250000  0.37429000  0.99826000  1.0
  C  C1164  1  0.75138000  0.00754000  0.98987000  1.0
  C  C1165  1  0.75169000  0.00762000  0.00781000  1.0
  C  C1166  1  0.75103000  0.02446000  0.95740000  1.0
  C  C1167  1  0.75067000  0.02437000  0.93708000  1.0
  C  C1168  1  0.75027000  0.00725000  0.92661000  1.0
  C  C1169  1  0.75024000  0.99023000  0.93742000  1.0
  C  C1170  1  0.75060000  0.99033000  0.95775000  1.0
  C  C1171  1  0.75100000  0.00744000  0.96822000  1.0
  C  C1172  1  0.75196000  0.99069000  0.04027000  1.0
  C  C1173  1  0.75232000  0.99078000  0.06059000  1.0
  C  C1174  1  0.75281000  0.00790000  0.07107000  1.0
  C  C1175  1  0.75291000  0.02492000  0.06026000  1.0
  C  C1176  1  0.75255000  0.02483000  0.03993000  1.0
  C  C1177  1  0.75207000  0.00771000  0.02945000  1.0
  C  C1178  1  0.74987000  0.00716000  0.90496000  1.0
  C  C1179  1  0.74952000  0.00708000  0.88701000  1.0
  C  C1180  1  0.75321000  0.00799000  0.09272000  1.0
  C  C1181  1  0.75356000  0.00807000  0.11066000  1.0
  C  C1182  1  0.76588000  0.00696000  0.85519000  1.0
  C  C1183  1  0.76543000  0.00689000  0.83486000  1.0
  C  C1184  1  0.74809000  0.00683000  0.82368000  1.0
  C  C1185  1  0.73125000  0.00685000  0.83392000  1.0
  C  C1186  1  0.73174000  0.00693000  0.85424000  1.0
  C  C1187  1  0.74905000  0.00699000  0.86537000  1.0
  C  C1188  1  0.77135000  0.00827000  0.14343000  1.0
  C  C1189  1  0.77185000  0.00834000  0.16375000  1.0
  C  C1190  1  0.75501000  0.00832000  0.17400000  1.0
  C  C1191  1  0.73767000  0.00823000  0.16282000  1.0
  C  C1192  1  0.73721000  0.00815000  0.14249000  1.0
  C  C1193  1  0.75404000  0.00816000  0.13231000  1.0
  C  C1194  1  0.75193000  0.00760000  0.48990000  1.0
  C  C1195  1  0.75122000  0.00758000  0.50779000  1.0
  C  C1196  1  0.77027000  0.00747000  0.45925000  1.0
  C  C1197  1  0.77106000  0.00750000  0.43900000  1.0
  C  C1198  1  0.75441000  0.00768000  0.42685000  1.0
  C  C1199  1  0.73691000  0.00784000  0.43592000  1.0
  C  C1200  1  0.73612000  0.00781000  0.45618000  1.0
  C  C1201  1  0.75277000  0.00763000  0.46833000  1.0
  C  C1202  1  0.73288000  0.00764000  0.53844000  1.0
  C  C1203  1  0.73209000  0.00761000  0.55869000  1.0
  C  C1204  1  0.74875000  0.00750000  0.57085000  1.0
  C  C1205  1  0.76624000  0.00741000  0.56177000  1.0
  C  C1206  1  0.76703000  0.00744000  0.54151000  1.0
  C  C1207  1  0.75037000  0.00755000  0.52936000  1.0
  C  C1208  1  0.75525000  0.00772000  0.40527000  1.0
  C  C1209  1  0.75594000  0.00775000  0.38739000  1.0
  C  C1210  1  0.74790000  0.00747000  0.59242000  1.0
  C  C1211  1  0.74721000  0.00743000  0.61031000  1.0
  C  C1212  1  0.75721000  0.02488000  0.35513000  1.0
  C  C1213  1  0.75788000  0.02494000  0.33487000  1.0
  C  C1214  1  0.75815000  0.00790000  0.32424000  1.0
  C  C1215  1  0.75774000  0.99080000  0.33498000  1.0
  C  C1216  1  0.75707000  0.99077000  0.35525000  1.0
  C  C1217  1  0.75676000  0.00780000  0.36581000  1.0
  C  C1218  1  0.74612000  0.02441000  0.64245000  1.0
  C  C1219  1  0.74545000  0.02438000  0.66271000  1.0
  C  C1220  1  0.74501000  0.00728000  0.67345000  1.0
  C  C1221  1  0.74524000  0.99024000  0.66282000  1.0
  C  C1222  1  0.74591000  0.99031000  0.64255000  1.0
  C  C1223  1  0.74639000  0.00739000  0.63188000  1.0
  O  O1224  1  0.50280000  0.50684000  0.50350000  1.0
  O  O1225  1  0.54633000  0.49035000  0.50468000  1.0
  O  O1226  1  0.51442000  0.54587000  0.48165000  1.0
  O  O1227  1  0.48986000  0.48466000  0.46432000  1.0
  O  O1228  1  0.54642000  0.52375000  0.50455000  1.0
  O  O1229  1  0.51421000  0.46798000  0.48201000  1.0
  O  O1230  1  0.49001000  0.52897000  0.46410000  1.0
  O  O1231  1  0.45888000  0.50668000  0.48541000  1.0
  O  O1232  1  0.49141000  0.48457000  0.54210000  1.0
  O  O1233  1  0.45955000  0.50664000  0.51883000  1.0
  O  O1234  1  0.51536000  0.46808000  0.52633000  1.0
  O  O1235  1  0.51556000  0.54566000  0.52598000  1.0
  O  O1236  1  0.49154000  0.52887000  0.54192000  1.0
  O  O1237  1  0.74584000  0.00697000  0.74854000  1.0
  O  O1238  1  0.70718000  0.98474000  0.75990000  1.0
  O  O1239  1  0.74461000  0.99047000  0.70499000  1.0
  O  O1240  1  0.72342000  0.04580000  0.73584000  1.0
  O  O1241  1  0.72290000  0.96822000  0.73592000  1.0
  O  O1242  1  0.70747000  0.02902000  0.75983000  1.0
  O  O1243  1  0.74480000  0.02386000  0.70494000  1.0
  O  O1244  1  0.76777000  0.04600000  0.73696000  1.0
  O  O1245  1  0.76394000  0.00683000  0.79246000  1.0
  O  O1246  1  0.78530000  0.02910000  0.76133000  1.0
  O  O1247  1  0.73051000  0.00679000  0.79177000  1.0
  O  O1248  1  0.76725000  0.96808000  0.73707000  1.0
  O  O1249  1  0.78498000  0.98478000  0.76141000  1.0
  O  O1250  1  0.00221000  0.50801000  0.49219000  1.0
  O  O1251  1  0.01506000  0.53023000  0.53137000  1.0
  O  O1252  1  0.98966000  0.54673000  0.46929000  1.0
  O  O1253  1  0.04546000  0.50819000  0.47691000  1.0
  O  O1254  1  0.99074000  0.54690000  0.51363000  1.0
  O  O1255  1  0.04610000  0.50820000  0.51034000  1.0
  O  O1256  1  0.01365000  0.53024000  0.45357000  1.0
  O  O1257  1  0.01351000  0.48596000  0.45381000  1.0
  O  O1258  1  0.99058000  0.46898000  0.51404000  1.0
  O  O1259  1  0.98948000  0.46916000  0.46971000  1.0
  O  O1260  1  0.01494000  0.48592000  0.53162000  1.0
  O  O1261  1  0.95868000  0.52449000  0.49091000  1.0
  O  O1262  1  0.95859000  0.49109000  0.49109000  1.0
  O  O1263  1  0.25268000  0.25768000  0.99867000  1.0
  O  O1264  1  0.23156000  0.26957000  0.03700000  1.0
  O  O1265  1  0.21314000  0.24556000  0.97559000  1.0
  O  O1266  1  0.25242000  0.30124000  0.98180000  1.0
  O  O1267  1  0.21430000  0.24542000  0.01994000  1.0
  O  O1268  1  0.25324000  0.30116000  0.01524000  1.0
  O  O1269  1  0.22960000  0.26975000  0.95913000  1.0
  O  O1270  1  0.27394000  0.26994000  0.96028000  1.0
  O  O1271  1  0.29211000  0.24567000  0.02185000  1.0
  O  O1272  1  0.29100000  0.24581000  0.97749000  1.0
  O  O1273  1  0.27591000  0.26975000  0.03808000  1.0
  O  O1274  1  0.23578000  0.21411000  0.99838000  1.0
  O  O1275  1  0.26922000  0.21422000  0.99918000  1.0
  O  O1276  1  0.75730000  0.00819000  0.24915000  1.0
  O  O1277  1  0.77982000  0.96941000  0.26184000  1.0
  O  O1278  1  0.77260000  0.00840000  0.20589000  1.0
  O  O1279  1  0.71790000  0.98599000  0.23638000  1.0
  O  O1280  1  0.79572000  0.98623000  0.23784000  1.0
  O  O1281  1  0.73546000  0.96912000  0.26074000  1.0
  O  O1282  1  0.73918000  0.00829000  0.20523000  1.0
  O  O1283  1  0.71811000  0.03029000  0.23627000  1.0
  O  O1284  1  0.75851000  0.02471000  0.29269000  1.0
  O  O1285  1  0.73580000  0.04705000  0.26060000  1.0
  O  O1286  1  0.75839000  0.99131000  0.29275000  1.0
  O  O1287  1  0.79589000  0.03051000  0.23775000  1.0
  O  O1288  1  0.78015000  0.04700000  0.26173000  1.0
  O  O1289  1  0.25059000  0.75734000  0.99689000  1.0
  O  O1290  1  0.25081000  0.71380000  0.01378000  1.0
  O  O1291  1  0.22731000  0.74527000  0.95750000  1.0
  O  O1292  1  0.21233000  0.76929000  0.01806000  1.0
  O  O1293  1  0.24995000  0.71384000  0.98034000  1.0
  O  O1294  1  0.22934000  0.74515000  0.03530000  1.0
  O  O1295  1  0.21116000  0.76940000  0.97371000  1.0
  O  O1296  1  0.23411000  0.80081000  0.99635000  1.0
  O  O1297  1  0.29018000  0.76942000  0.01990000  1.0
  O  O1298  1  0.26755000  0.80089000  0.99712000  1.0
  O  O1299  1  0.27369000  0.74527000  0.03639000  1.0
  O  O1300  1  0.27164000  0.74540000  0.95853000  1.0
  O  O1301  1  0.28897000  0.76953000  0.97554000  1.0
