# generated using pymatgen
data_Dy2CoH24C48(NO2)8
_symmetry_space_group_name_H-M   'P 1'
_cell_length_a   10.99800000
_cell_length_b   32.89780000
_cell_length_c   32.89780000
_cell_angle_alpha   88.39890000
_cell_angle_beta   80.37760000
_cell_angle_gamma   80.37770000
_symmetry_Int_Tables_number   1
_chemical_formula_structural   Dy2CoH24C48(NO2)8
_chemical_formula_sum   'Dy16 Co8 H192 C384 N64 O128'
_cell_volume   11570.18734430
_cell_formula_units_Z   8
loop_
 _symmetry_equiv_pos_site_id
 _symmetry_equiv_pos_as_xyz
  1  'x, y, z'
loop_
 _atom_site_type_symbol
 _atom_site_label
 _atom_site_symmetry_multiplicity
 _atom_site_fract_x
 _atom_site_fract_y
 _atom_site_fract_z
 _atom_site_occupancy
  Dy  Dy0  1  0.81075000  0.97344000  0.17146000  1.0
  Dy  Dy1  1  0.30854000  0.97556000  0.17536000  1.0
  Dy  Dy2  1  0.45565000  0.52656000  0.32854000  1.0
  Dy  Dy3  1  0.95946000  0.52444000  0.32464000  1.0
  Dy  Dy4  1  0.98221000  0.82854000  0.47344000  1.0
  Dy  Dy5  1  0.48390000  0.82464000  0.47556000  1.0
  Dy  Dy6  1  0.78419000  0.67146000  0.02656000  1.0
  Dy  Dy7  1  0.28410000  0.67536000  0.02444000  1.0
  Dy  Dy8  1  0.18925000  0.02656000  0.82854000  1.0
  Dy  Dy9  1  0.69146000  0.02444000  0.82464000  1.0
  Dy  Dy10  1  0.54435000  0.47344000  0.67146000  1.0
  Dy  Dy11  1  0.04054000  0.47556000  0.67536000  1.0
  Dy  Dy12  1  0.01779000  0.17146000  0.52656000  1.0
  Dy  Dy13  1  0.51610000  0.17536000  0.52444000  1.0
  Dy  Dy14  1  0.21581000  0.32854000  0.97344000  1.0
  Dy  Dy15  1  0.71590000  0.32464000  0.97556000  1.0
  Co  Co16  1  0.28951000  0.12854000  0.03618000  1.0
  Co  Co17  1  0.95423000  0.37146000  0.46382000  1.0
  Co  Co18  1  0.32569000  0.96382000  0.62854000  1.0
  Co  Co19  1  0.41805000  0.53618000  0.87146000  1.0
  Co  Co20  1  0.71049000  0.87146000  0.96382000  1.0
  Co  Co21  1  0.04577000  0.62854000  0.53618000  1.0
  Co  Co22  1  0.67431000  0.03618000  0.37146000  1.0
  Co  Co23  1  0.58195000  0.46382000  0.12854000  1.0
  H  H24  1  0.66300000  0.12680000  0.22080000  1.0
  H  H25  1  0.82550000  0.12950000  0.25790000  1.0
  H  H26  1  0.84450000  0.08780000  0.31340000  1.0
  H  H27  1  0.41880000  0.00100000  0.39580000  1.0
  H  H28  1  0.31050000  0.96260000  0.36200000  1.0
  H  H29  1  0.36380000  0.95630000  0.28950000  1.0
  H  H30  1  0.53780000  0.84530000  0.13410000  1.0
  H  H31  1  0.64900000  0.78830000  0.09430000  1.0
  H  H32  1  0.75080000  0.80010000  0.02770000  1.0
  H  H33  1  0.64060000  0.96860000  0.94120000  1.0
  H  H34  1  0.66120000  0.02870000  0.97210000  1.0
  H  H35  1  0.70190000  0.02690000  0.03890000  1.0
  H  H36  1  0.94270000  0.01770000  0.06090000  1.0
  H  H37  1  0.93150000  0.06170000  0.00570000  1.0
  H  H38  1  0.05510000  0.11210000  0.99630000  1.0
  H  H39  1  0.41730000  0.13950000  0.11350000  1.0
  H  H40  1  0.34710000  0.14920000  0.18120000  1.0
  H  H41  1  0.15880000  0.12960000  0.21060000  1.0
  H  H42  1  0.11280000  0.85260000  0.13860000  1.0
  H  H43  1  0.27080000  0.78920000  0.13480000  1.0
  H  H44  1  0.27980000  0.76250000  0.20230000  1.0
  H  H45  1  0.96390000  0.87060000  0.36720000  1.0
  H  H46  1  0.01170000  0.93110000  0.37350000  1.0
  H  H47  1  0.09910000  0.95830000  0.31270000  1.0
  H  H48  1  0.51060000  0.37320000  0.27920000  1.0
  H  H49  1  0.71290000  0.37050000  0.24210000  1.0
  H  H50  1  0.74570000  0.41220000  0.18660000  1.0
  H  H51  1  0.31560000  0.49900000  0.10420000  1.0
  H  H52  1  0.13510000  0.53740000  0.13800000  1.0
  H  H53  1  0.10960000  0.54370000  0.21050000  1.0
  H  H54  1  0.01720000  0.65470000  0.36590000  1.0
  H  H55  1  0.03160000  0.71170000  0.40570000  1.0
  H  H56  1  0.07860000  0.69990000  0.47230000  1.0
  H  H57  1  0.05040000  0.53140000  0.55880000  1.0
  H  H58  1  0.16200000  0.47130000  0.52790000  1.0
  H  H59  1  0.26770000  0.47310000  0.46110000  1.0
  H  H60  1  0.52130000  0.48230000  0.43910000  1.0
  H  H61  1  0.49890000  0.43830000  0.49430000  1.0
  H  H62  1  0.66350000  0.38790000  0.50370000  1.0
  H  H63  1  0.17030000  0.36050000  0.38650000  1.0
  H  H64  1  0.17750000  0.35080000  0.31880000  1.0
  H  H65  1  0.99900000  0.37040000  0.28940000  1.0
  H  H66  1  0.60400000  0.64740000  0.36140000  1.0
  H  H67  1  0.69480000  0.71080000  0.36520000  1.0
  H  H68  1  0.74460000  0.73750000  0.29770000  1.0
  H  H69  1  0.70170000  0.62940000  0.13280000  1.0
  H  H70  1  0.81630000  0.56890000  0.12650000  1.0
  H  H71  1  0.87010000  0.54170000  0.18730000  1.0
  H  H72  1  0.88380000  0.77920000  0.62680000  1.0
  H  H73  1  0.08340000  0.74210000  0.62950000  1.0
  H  H74  1  0.15790000  0.68660000  0.58780000  1.0
  H  H75  1  0.81460000  0.60420000  0.50100000  1.0
  H  H76  1  0.67250000  0.63800000  0.46260000  1.0
  H  H77  1  0.65330000  0.71050000  0.45630000  1.0
  H  H78  1  0.67190000  0.86590000  0.34530000  1.0
  H  H79  1  0.74330000  0.90570000  0.28830000  1.0
  H  H80  1  0.77850000  0.97230000  0.30010000  1.0
  H  H81  1  0.58180000  0.05880000  0.46860000  1.0
  H  H82  1  0.63330000  0.02790000  0.52870000  1.0
  H  H83  1  0.74080000  0.96110000  0.52690000  1.0
  H  H84  1  0.00360000  0.93910000  0.51770000  1.0
  H  H85  1  0.93720000  0.99430000  0.56170000  1.0
  H  H86  1  0.05140000  0.00370000  0.61210000  1.0
  H  H87  1  0.53080000  0.88650000  0.63950000  1.0
  H  H88  1  0.52830000  0.81880000  0.64920000  1.0
  H  H89  1  0.36940000  0.78940000  0.62960000  1.0
  H  H90  1  0.25140000  0.86140000  0.35260000  1.0
  H  H91  1  0.40560000  0.86520000  0.28920000  1.0
  H  H92  1  0.48210000  0.79770000  0.26250000  1.0
  H  H93  1  0.33110000  0.63280000  0.37060000  1.0
  H  H94  1  0.38520000  0.62650000  0.43110000  1.0
  H  H95  1  0.41180000  0.68730000  0.45830000  1.0
  H  H96  1  0.78980000  0.72080000  0.87320000  1.0
  H  H97  1  0.95500000  0.75790000  0.87050000  1.0
  H  H98  1  0.93230000  0.81340000  0.91220000  1.0
  H  H99  1  0.41980000  0.89580000  0.99900000  1.0
  H  H100  1  0.27310000  0.86200000  0.03740000  1.0
  H  H101  1  0.32010000  0.78950000  0.04370000  1.0
  H  H102  1  0.38310000  0.63410000  0.15470000  1.0
  H  H103  1  0.43730000  0.59430000  0.21170000  1.0
  H  H104  1  0.55090000  0.52770000  0.19990000  1.0
  H  H105  1  0.60920000  0.44120000  0.03140000  1.0
  H  H106  1  0.68990000  0.47210000  0.97130000  1.0
  H  H107  1  0.72880000  0.53890000  0.97310000  1.0
  H  H108  1  0.96040000  0.56090000  0.98230000  1.0
  H  H109  1  0.99320000  0.50570000  0.93830000  1.0
  H  H110  1  0.16720000  0.49630000  0.88790000  1.0
  H  H111  1  0.55680000  0.61350000  0.86050000  1.0
  H  H112  1  0.49630000  0.68120000  0.85080000  1.0
  H  H113  1  0.28840000  0.71060000  0.87040000  1.0
  H  H114  1  0.96540000  0.63860000  0.14740000  1.0
  H  H115  1  0.06000000  0.63480000  0.21080000  1.0
  H  H116  1  0.04230000  0.70230000  0.23750000  1.0
  H  H117  1  0.83450000  0.86720000  0.12940000  1.0
  H  H118  1  0.94280000  0.87350000  0.06890000  1.0
  H  H119  1  0.05740000  0.81270000  0.04170000  1.0
  H  H120  1  0.33700000  0.87320000  0.77920000  1.0
  H  H121  1  0.17450000  0.87050000  0.74210000  1.0
  H  H122  1  0.15550000  0.91220000  0.68660000  1.0
  H  H123  1  0.58120000  0.99900000  0.60420000  1.0
  H  H124  1  0.68950000  0.03740000  0.63800000  1.0
  H  H125  1  0.63620000  0.04370000  0.71050000  1.0
  H  H126  1  0.46220000  0.15470000  0.86590000  1.0
  H  H127  1  0.35100000  0.21170000  0.90570000  1.0
  H  H128  1  0.24920000  0.19990000  0.97230000  1.0
  H  H129  1  0.35940000  0.03140000  0.05880000  1.0
  H  H130  1  0.33880000  0.97130000  0.02790000  1.0
  H  H131  1  0.29810000  0.97310000  0.96110000  1.0
  H  H132  1  0.05730000  0.98230000  0.93910000  1.0
  H  H133  1  0.06850000  0.93830000  0.99430000  1.0
  H  H134  1  0.94490000  0.88790000  0.00370000  1.0
  H  H135  1  0.58270000  0.86050000  0.88650000  1.0
  H  H136  1  0.65290000  0.85080000  0.81880000  1.0
  H  H137  1  0.84120000  0.87040000  0.78940000  1.0
  H  H138  1  0.88720000  0.14740000  0.86140000  1.0
  H  H139  1  0.72920000  0.21080000  0.86520000  1.0
  H  H140  1  0.72020000  0.23750000  0.79770000  1.0
  H  H141  1  0.03610000  0.12940000  0.63280000  1.0
  H  H142  1  0.98830000  0.06890000  0.62650000  1.0
  H  H143  1  0.90090000  0.04170000  0.68730000  1.0
  H  H144  1  0.48940000  0.62680000  0.72080000  1.0
  H  H145  1  0.28710000  0.62950000  0.75790000  1.0
  H  H146  1  0.25430000  0.58780000  0.81340000  1.0
  H  H147  1  0.68440000  0.50100000  0.89580000  1.0
  H  H148  1  0.86490000  0.46260000  0.86200000  1.0
  H  H149  1  0.89040000  0.45630000  0.78950000  1.0
  H  H150  1  0.98280000  0.34530000  0.63410000  1.0
  H  H151  1  0.96840000  0.28830000  0.59430000  1.0
  H  H152  1  0.92140000  0.30010000  0.52770000  1.0
  H  H153  1  0.94960000  0.46860000  0.44120000  1.0
  H  H154  1  0.83800000  0.52870000  0.47210000  1.0
  H  H155  1  0.73230000  0.52690000  0.53890000  1.0
  H  H156  1  0.47870000  0.51770000  0.56090000  1.0
  H  H157  1  0.50110000  0.56170000  0.50570000  1.0
  H  H158  1  0.33650000  0.61210000  0.49630000  1.0
  H  H159  1  0.82970000  0.63950000  0.61350000  1.0
  H  H160  1  0.82250000  0.64920000  0.68120000  1.0
  H  H161  1  0.00100000  0.62960000  0.71060000  1.0
  H  H162  1  0.39600000  0.35260000  0.63860000  1.0
  H  H163  1  0.30520000  0.28920000  0.63480000  1.0
  H  H164  1  0.25540000  0.26250000  0.70230000  1.0
  H  H165  1  0.29830000  0.37060000  0.86720000  1.0
  H  H166  1  0.18370000  0.43110000  0.87350000  1.0
  H  H167  1  0.12990000  0.45830000  0.81270000  1.0
  H  H168  1  0.11620000  0.22080000  0.37320000  1.0
  H  H169  1  0.91660000  0.25790000  0.37050000  1.0
  H  H170  1  0.84210000  0.31340000  0.41220000  1.0
  H  H171  1  0.18540000  0.39580000  0.49900000  1.0
  H  H172  1  0.32750000  0.36200000  0.53740000  1.0
  H  H173  1  0.34670000  0.28950000  0.54370000  1.0
  H  H174  1  0.32810000  0.13410000  0.65470000  1.0
  H  H175  1  0.25670000  0.09430000  0.71170000  1.0
  H  H176  1  0.22150000  0.02770000  0.69990000  1.0
  H  H177  1  0.41820000  0.94120000  0.53140000  1.0
  H  H178  1  0.36670000  0.97210000  0.47130000  1.0
  H  H179  1  0.25920000  0.03890000  0.47310000  1.0
  H  H180  1  0.99640000  0.06090000  0.48230000  1.0
  H  H181  1  0.06280000  0.00570000  0.43830000  1.0
  H  H182  1  0.94860000  0.99630000  0.38790000  1.0
  H  H183  1  0.46920000  0.11350000  0.36050000  1.0
  H  H184  1  0.47170000  0.18120000  0.35080000  1.0
  H  H185  1  0.63060000  0.21060000  0.37040000  1.0
  H  H186  1  0.74860000  0.13860000  0.64740000  1.0
  H  H187  1  0.59440000  0.13480000  0.71080000  1.0
  H  H188  1  0.51790000  0.20230000  0.73750000  1.0
  H  H189  1  0.66890000  0.36720000  0.62940000  1.0
  H  H190  1  0.61480000  0.37350000  0.56890000  1.0
  H  H191  1  0.58820000  0.31270000  0.54170000  1.0
  H  H192  1  0.21020000  0.27920000  0.12680000  1.0
  H  H193  1  0.04500000  0.24210000  0.12950000  1.0
  H  H194  1  0.06770000  0.18660000  0.08780000  1.0
  H  H195  1  0.58020000  0.10420000  0.00100000  1.0
  H  H196  1  0.72690000  0.13800000  0.96260000  1.0
  H  H197  1  0.67990000  0.21050000  0.95630000  1.0
  H  H198  1  0.61690000  0.36590000  0.84530000  1.0
  H  H199  1  0.56270000  0.40570000  0.78830000  1.0
  H  H200  1  0.44910000  0.47230000  0.80010000  1.0
  H  H201  1  0.39080000  0.55880000  0.96860000  1.0
  H  H202  1  0.31010000  0.52790000  0.02870000  1.0
  H  H203  1  0.27120000  0.46110000  0.02690000  1.0
  H  H204  1  0.03960000  0.43910000  0.01770000  1.0
  H  H205  1  0.00680000  0.49430000  0.06170000  1.0
  H  H206  1  0.83280000  0.50370000  0.11210000  1.0
  H  H207  1  0.44320000  0.38650000  0.13950000  1.0
  H  H208  1  0.50370000  0.31880000  0.14920000  1.0
  H  H209  1  0.71160000  0.28940000  0.12960000  1.0
  H  H210  1  0.03460000  0.36140000  0.85260000  1.0
  H  H211  1  0.94000000  0.36520000  0.78920000  1.0
  H  H212  1  0.95770000  0.29770000  0.76250000  1.0
  H  H213  1  0.16550000  0.13280000  0.87060000  1.0
  H  H214  1  0.05720000  0.12650000  0.93110000  1.0
  H  H215  1  0.94260000  0.18730000  0.95830000  1.0
  C  C216  1  0.48860000  0.07890000  0.23050000  1.0
  C  C217  1  0.59540000  0.07990000  0.25470000  1.0
  C  C218  1  0.67440000  0.10920000  0.24280000  1.0
  C  C219  1  0.77000000  0.11100000  0.26540000  1.0
  C  C220  1  0.78150000  0.08560000  0.29840000  1.0
  C  C221  1  0.61480000  0.05460000  0.28820000  1.0
  C  C222  1  0.53080000  0.02460000  0.30580000  1.0
  C  C223  1  0.43260000  0.00090000  0.36710000  1.0
  C  C224  1  0.37050000  0.97660000  0.34720000  1.0
  C  C225  1  0.40020000  0.97360000  0.30380000  1.0
  C  C226  1  0.48530000  0.99740000  0.28280000  1.0
  C  C227  1  0.53120000  0.98880000  0.23740000  1.0
  C  C228  1  0.48830000  0.92370000  0.11290000  1.0
  C  C229  1  0.57990000  0.88830000  0.09030000  1.0
  C  C230  1  0.58010000  0.84890000  0.10770000  1.0
  C  C231  1  0.64620000  0.81500000  0.08400000  1.0
  C  C232  1  0.70880000  0.82260000  0.04360000  1.0
  C  C233  1  0.65080000  0.89260000  0.05160000  1.0
  C  C234  1  0.66250000  0.93190000  0.03070000  1.0
  C  C235  1  0.64970000  0.96850000  0.96870000  1.0
  C  C236  1  0.66550000  0.00410000  0.98690000  1.0
  C  C237  1  0.68750000  0.00320000  0.02700000  1.0
  C  C238  1  0.68800000  0.96750000  0.04930000  1.0
  C  C239  1  0.73130000  0.96440000  0.09180000  1.0
  C  C240  1  0.06650000  0.01760000  0.12380000  1.0
  C  C241  1  0.05330000  0.04810000  0.09070000  1.0
  C  C242  1  0.98460000  0.04020000  0.05860000  1.0
  C  C243  1  0.98080000  0.06560000  0.02520000  1.0
  C  C244  1  0.05040000  0.09700000  0.02060000  1.0
  C  C245  1  0.10830000  0.08310000  0.08550000  1.0
  C  C246  1  0.17170000  0.10080000  0.11680000  1.0
  C  C247  1  0.34230000  0.13090000  0.12470000  1.0
  C  C248  1  0.30110000  0.13700000  0.16520000  1.0
  C  C249  1  0.19000000  0.12490000  0.18270000  1.0
  C  C250  1  0.12660000  0.10600000  0.15880000  1.0
  C  C251  1  0.00750000  0.09130000  0.17810000  1.0
  C  C252  1  0.97470000  0.90220000  0.19620000  1.0
  C  C253  1  0.07950000  0.86240000  0.20040000  1.0
  C  C254  1  0.13590000  0.84090000  0.16290000  1.0
  C  C255  1  0.22750000  0.80210000  0.15890000  1.0
  C  C256  1  0.23470000  0.78880000  0.19960000  1.0
  C  C257  1  0.11930000  0.84840000  0.23500000  1.0
  C  C258  1  0.07780000  0.87280000  0.27300000  1.0
  C  C259  1  0.00030000  0.88170000  0.34270000  1.0
  C  C260  1  0.02710000  0.91740000  0.34840000  1.0
  C  C261  1  0.08100000  0.93160000  0.31260000  1.0
  C  C262  1  0.11320000  0.91040000  0.27440000  1.0
  C  C263  1  0.18470000  0.92990000  0.23950000  1.0
  C  C264  1  0.29800000  0.42110000  0.26950000  1.0
  C  C265  1  0.43000000  0.42010000  0.24530000  1.0
  C  C266  1  0.52640000  0.39080000  0.25720000  1.0
  C  C267  1  0.64640000  0.38900000  0.23460000  1.0
  C  C268  1  0.66550000  0.41440000  0.20160000  1.0
  C  C269  1  0.45760000  0.44540000  0.21180000  1.0
  C  C270  1  0.36120000  0.47540000  0.19420000  1.0
  C  C271  1  0.30060000  0.49910000  0.13290000  1.0
  C  C272  1  0.19430000  0.52340000  0.15280000  1.0
  C  C273  1  0.17760000  0.52640000  0.19620000  1.0
  C  C274  1  0.26550000  0.50260000  0.21720000  1.0
  C  C275  1  0.25740000  0.51120000  0.26260000  1.0
  C  C276  1  0.02490000  0.57630000  0.38710000  1.0
  C  C277  1  0.05850000  0.61170000  0.40970000  1.0
  C  C278  1  0.03670000  0.65110000  0.39230000  1.0
  C  C279  1  0.04520000  0.68500000  0.41600000  1.0
  C  C280  1  0.07500000  0.67740000  0.45640000  1.0
  C  C281  1  0.09500000  0.60740000  0.44840000  1.0
  C  C282  1  0.12510000  0.56810000  0.46930000  1.0
  C  C283  1  0.08690000  0.53150000  0.53130000  1.0
  C  C284  1  0.15650000  0.49590000  0.51310000  1.0
  C  C285  1  0.21770000  0.49680000  0.47300000  1.0
  C  C286  1  0.20480000  0.53250000  0.45070000  1.0
  C  C287  1  0.28750000  0.53560000  0.40820000  1.0
  C  C288  1  0.70790000  0.48240000  0.37620000  1.0
  C  C289  1  0.69210000  0.45190000  0.40930000  1.0
  C  C290  1  0.58340000  0.45980000  0.44140000  1.0
  C  C291  1  0.57160000  0.43440000  0.47480000  1.0
  C  C292  1  0.66800000  0.40300000  0.47940000  1.0
  C  C293  1  0.77690000  0.41690000  0.41450000  1.0
  C  C294  1  0.88930000  0.39920000  0.38320000  1.0
  C  C295  1  0.09790000  0.36910000  0.37530000  1.0
  C  C296  1  0.10330000  0.36300000  0.33480000  1.0
  C  C297  1  0.99760000  0.37510000  0.31730000  1.0
  C  C298  1  0.89140000  0.39400000  0.34120000  1.0
  C  C299  1  0.77690000  0.40870000  0.32190000  1.0
  C  C300  1  0.57310000  0.59780000  0.30380000  1.0
  C  C301  1  0.64230000  0.63760000  0.29960000  1.0
  C  C302  1  0.63970000  0.65910000  0.33710000  1.0
  C  C303  1  0.68850000  0.69790000  0.34110000  1.0
  C  C304  1  0.72310000  0.71120000  0.30040000  1.0
  C  C305  1  0.70270000  0.65160000  0.26500000  1.0
  C  C306  1  0.72360000  0.62720000  0.22700000  1.0
  C  C307  1  0.72470000  0.61830000  0.15730000  1.0
  C  C308  1  0.79290000  0.58260000  0.15160000  1.0
  C  C309  1  0.82520000  0.56840000  0.18740000  1.0
  C  C310  1  0.79800000  0.58960000  0.22560000  1.0
  C  C311  1  0.85410000  0.57010000  0.26050000  1.0
  C  C312  1  0.71910000  0.76950000  0.57890000  1.0
  C  C313  1  0.85010000  0.74530000  0.57990000  1.0
  C  C314  1  0.91720000  0.75720000  0.60920000  1.0
  C  C315  1  0.03540000  0.73460000  0.61100000  1.0
  C  C316  1  0.07990000  0.70160000  0.58560000  1.0
  C  C317  1  0.90300000  0.71180000  0.55460000  1.0
  C  C318  1  0.83660000  0.69420000  0.52460000  1.0
  C  C319  1  0.79970000  0.63290000  0.50090000  1.0
  C  C320  1  0.71770000  0.65280000  0.47660000  1.0
  C  C321  1  0.70400000  0.69620000  0.47360000  1.0
  C  C322  1  0.76810000  0.71720000  0.49740000  1.0
  C  C323  1  0.76860000  0.76260000  0.48880000  1.0
  C  C324  1  0.60120000  0.88710000  0.42370000  1.0
  C  C325  1  0.67020000  0.90970000  0.38830000  1.0
  C  C326  1  0.68780000  0.89230000  0.34890000  1.0
  C  C327  1  0.73020000  0.91600000  0.31500000  1.0
  C  C328  1  0.75240000  0.95640000  0.32260000  1.0
  C  C329  1  0.70240000  0.94840000  0.39260000  1.0
  C  C330  1  0.69320000  0.96930000  0.43190000  1.0
  C  C331  1  0.61840000  0.03130000  0.46850000  1.0
  C  C332  1  0.65240000  0.01310000  0.50410000  1.0
  C  C333  1  0.71450000  0.97300000  0.50320000  1.0
  C  C334  1  0.73730000  0.95070000  0.46750000  1.0
  C  C335  1  0.82310000  0.90820000  0.46440000  1.0
  C  C336  1  0.19030000  0.87620000  0.51760000  1.0
  C  C337  1  0.14400000  0.90930000  0.54810000  1.0
  C  C338  1  0.04320000  0.94140000  0.54020000  1.0
  C  C339  1  0.00600000  0.97480000  0.56560000  1.0
  C  C340  1  0.07100000  0.97940000  0.59700000  1.0
  C  C341  1  0.19380000  0.91450000  0.58310000  1.0
  C  C342  1  0.28850000  0.88320000  0.60080000  1.0
  C  C343  1  0.46700000  0.87530000  0.63090000  1.0
  C  C344  1  0.46630000  0.83480000  0.63700000  1.0
  C  C345  1  0.37270000  0.81730000  0.62490000  1.0
  C  C346  1  0.28540000  0.84120000  0.60600000  1.0
  C  C347  1  0.18560000  0.82190000  0.59130000  1.0
  C  C348  1  0.17090000  0.80380000  0.40220000  1.0
  C  C349  1  0.27990000  0.79960000  0.36240000  1.0
  C  C350  1  0.29880000  0.83710000  0.34090000  1.0
  C  C351  1  0.38640000  0.84110000  0.30210000  1.0
  C  C352  1  0.43430000  0.80040000  0.28880000  1.0
  C  C353  1  0.35430000  0.76500000  0.34840000  1.0
  C  C354  1  0.35080000  0.72700000  0.37280000  1.0
  C  C355  1  0.34300000  0.65730000  0.38170000  1.0
  C  C356  1  0.37550000  0.65160000  0.41740000  1.0
  C  C357  1  0.39360000  0.68740000  0.43160000  1.0
  C  C358  1  0.38760000  0.72560000  0.41040000  1.0
  C  C359  1  0.42420000  0.76050000  0.42990000  1.0
  C  C360  1  0.56750000  0.73050000  0.92110000  1.0
  C  C361  1  0.67530000  0.75470000  0.92010000  1.0
  C  C362  1  0.78360000  0.74280000  0.89080000  1.0
  C  C363  1  0.88100000  0.76540000  0.88900000  1.0
  C  C364  1  0.86710000  0.79840000  0.91440000  1.0
  C  C365  1  0.66940000  0.78820000  0.94540000  1.0
  C  C366  1  0.55540000  0.80580000  0.97540000  1.0
  C  C367  1  0.43350000  0.86710000  0.99910000  1.0
  C  C368  1  0.34710000  0.84720000  0.02340000  1.0
  C  C369  1  0.37380000  0.80380000  0.02640000  1.0
  C  C370  1  0.48270000  0.78280000  0.00260000  1.0
  C  C371  1  0.52000000  0.73740000  0.01120000  1.0
  C  C372  1  0.41200000  0.61290000  0.07630000  1.0
  C  C373  1  0.46820000  0.59030000  0.11170000  1.0
  C  C374  1  0.42900000  0.60770000  0.15110000  1.0
  C  C375  1  0.46120000  0.58400000  0.18500000  1.0
  C  C376  1  0.53140000  0.54360000  0.17740000  1.0
  C  C377  1  0.54340000  0.55160000  0.10740000  1.0
  C  C378  1  0.59440000  0.53070000  0.06810000  1.0
  C  C379  1  0.61820000  0.46870000  0.03150000  1.0
  C  C380  1  0.66960000  0.48690000  0.99590000  1.0
  C  C381  1  0.69070000  0.52700000  0.99680000  1.0
  C  C382  1  0.65550000  0.54930000  0.03250000  1.0
  C  C383  1  0.69570000  0.59180000  0.03560000  1.0
  C  C384  1  0.08410000  0.62380000  0.98240000  1.0
  C  C385  1  0.10140000  0.59070000  0.95190000  1.0
  C  C386  1  0.02480000  0.55860000  0.95980000  1.0
  C  C387  1  0.04640000  0.52520000  0.93440000  1.0
  C  C388  1  0.14740000  0.52060000  0.90300000  1.0
  C  C389  1  0.19140000  0.58550000  0.91690000  1.0
  C  C390  1  0.27250000  0.61680000  0.89920000  1.0
  C  C391  1  0.47320000  0.62470000  0.86910000  1.0
  C  C392  1  0.43810000  0.66520000  0.86300000  1.0
  C  C393  1  0.31490000  0.68270000  0.87510000  1.0
  C  C394  1  0.23260000  0.65880000  0.89400000  1.0
  C  C395  1  0.09880000  0.67810000  0.90870000  1.0
  C  C396  1  0.87690000  0.69620000  0.09780000  1.0
  C  C397  1  0.94190000  0.70040000  0.13760000  1.0
  C  C398  1  0.97680000  0.66290000  0.15910000  1.0
  C  C399  1  0.02960000  0.65890000  0.19790000  1.0
  C  C400  1  0.02350000  0.69960000  0.21120000  1.0
  C  C401  1  0.96770000  0.73500000  0.15160000  1.0
  C  C402  1  0.95060000  0.77300000  0.12720000  1.0
  C  C403  1  0.88200000  0.84270000  0.11830000  1.0
  C  C404  1  0.94450000  0.84840000  0.08260000  1.0
  C  C405  1  0.01260000  0.81260000  0.06840000  1.0
  C  C406  1  0.02360000  0.77440000  0.08960000  1.0
  C  C407  1  0.11460000  0.73950000  0.07010000  1.0
  C  C408  1  0.51140000  0.92110000  0.76950000  1.0
  C  C409  1  0.40460000  0.92010000  0.74530000  1.0
  C  C410  1  0.32560000  0.89080000  0.75720000  1.0
  C  C411  1  0.23000000  0.88900000  0.73460000  1.0
  C  C412  1  0.21850000  0.91440000  0.70160000  1.0
  C  C413  1  0.38520000  0.94540000  0.71180000  1.0
  C  C414  1  0.46920000  0.97540000  0.69420000  1.0
  C  C415  1  0.56740000  0.99910000  0.63290000  1.0
  C  C416  1  0.62950000  0.02340000  0.65280000  1.0
  C  C417  1  0.59980000  0.02640000  0.69620000  1.0
  C  C418  1  0.51470000  0.00260000  0.71720000  1.0
  C  C419  1  0.46880000  0.01120000  0.76260000  1.0
  C  C420  1  0.51170000  0.07630000  0.88710000  1.0
  C  C421  1  0.42010000  0.11170000  0.90970000  1.0
  C  C422  1  0.41990000  0.15110000  0.89230000  1.0
  C  C423  1  0.35380000  0.18500000  0.91600000  1.0
  C  C424  1  0.29120000  0.17740000  0.95640000  1.0
  C  C425  1  0.34920000  0.10740000  0.94840000  1.0
  C  C426  1  0.33750000  0.06810000  0.96930000  1.0
  C  C427  1  0.35030000  0.03150000  0.03130000  1.0
  C  C428  1  0.33450000  0.99590000  0.01310000  1.0
  C  C429  1  0.31250000  0.99680000  0.97300000  1.0
  C  C430  1  0.31200000  0.03250000  0.95070000  1.0
  C  C431  1  0.26870000  0.03560000  0.90820000  1.0
  C  C432  1  0.93350000  0.98240000  0.87620000  1.0
  C  C433  1  0.94670000  0.95190000  0.90930000  1.0
  C  C434  1  0.01540000  0.95980000  0.94140000  1.0
  C  C435  1  0.01920000  0.93440000  0.97480000  1.0
  C  C436  1  0.94960000  0.90300000  0.97940000  1.0
  C  C437  1  0.89170000  0.91690000  0.91450000  1.0
  C  C438  1  0.82830000  0.89920000  0.88320000  1.0
  C  C439  1  0.65770000  0.86910000  0.87530000  1.0
  C  C440  1  0.69890000  0.86300000  0.83480000  1.0
  C  C441  1  0.81000000  0.87510000  0.81730000  1.0
  C  C442  1  0.87340000  0.89400000  0.84120000  1.0
  C  C443  1  0.99250000  0.90870000  0.82190000  1.0
  C  C444  1  0.02530000  0.09780000  0.80380000  1.0
  C  C445  1  0.92050000  0.13760000  0.79960000  1.0
  C  C446  1  0.86410000  0.15910000  0.83710000  1.0
  C  C447  1  0.77250000  0.19790000  0.84110000  1.0
  C  C448  1  0.76530000  0.21120000  0.80040000  1.0
  C  C449  1  0.88070000  0.15160000  0.76500000  1.0
  C  C450  1  0.92220000  0.12720000  0.72700000  1.0
  C  C451  1  0.99970000  0.11830000  0.65730000  1.0
  C  C452  1  0.97290000  0.08260000  0.65160000  1.0
  C  C453  1  0.91900000  0.06840000  0.68740000  1.0
  C  C454  1  0.88680000  0.08960000  0.72560000  1.0
  C  C455  1  0.81530000  0.07010000  0.76050000  1.0
  C  C456  1  0.70200000  0.57890000  0.73050000  1.0
  C  C457  1  0.57000000  0.57990000  0.75470000  1.0
  C  C458  1  0.47360000  0.60920000  0.74280000  1.0
  C  C459  1  0.35360000  0.61100000  0.76540000  1.0
  C  C460  1  0.33450000  0.58560000  0.79840000  1.0
  C  C461  1  0.54240000  0.55460000  0.78820000  1.0
  C  C462  1  0.63880000  0.52460000  0.80580000  1.0
  C  C463  1  0.69940000  0.50090000  0.86710000  1.0
  C  C464  1  0.80570000  0.47660000  0.84720000  1.0
  C  C465  1  0.82240000  0.47360000  0.80380000  1.0
  C  C466  1  0.73450000  0.49740000  0.78280000  1.0
  C  C467  1  0.74260000  0.48880000  0.73740000  1.0
  C  C468  1  0.97510000  0.42370000  0.61290000  1.0
  C  C469  1  0.94150000  0.38830000  0.59030000  1.0
  C  C470  1  0.96330000  0.34890000  0.60770000  1.0
  C  C471  1  0.95480000  0.31500000  0.58400000  1.0
  C  C472  1  0.92500000  0.32260000  0.54360000  1.0
  C  C473  1  0.90500000  0.39260000  0.55160000  1.0
  C  C474  1  0.87490000  0.43190000  0.53070000  1.0
  C  C475  1  0.91310000  0.46850000  0.46870000  1.0
  C  C476  1  0.84350000  0.50410000  0.48690000  1.0
  C  C477  1  0.78230000  0.50320000  0.52700000  1.0
  C  C478  1  0.79520000  0.46750000  0.54930000  1.0
  C  C479  1  0.71250000  0.46440000  0.59180000  1.0
  C  C480  1  0.29210000  0.51760000  0.62380000  1.0
  C  C481  1  0.30790000  0.54810000  0.59070000  1.0
  C  C482  1  0.41660000  0.54020000  0.55860000  1.0
  C  C483  1  0.42840000  0.56560000  0.52520000  1.0
  C  C484  1  0.33200000  0.59700000  0.52060000  1.0
  C  C485  1  0.22310000  0.58310000  0.58550000  1.0
  C  C486  1  0.11070000  0.60080000  0.61680000  1.0
  C  C487  1  0.90210000  0.63090000  0.62470000  1.0
  C  C488  1  0.89670000  0.63700000  0.66520000  1.0
  C  C489  1  0.00240000  0.62490000  0.68270000  1.0
  C  C490  1  0.10860000  0.60600000  0.65880000  1.0
  C  C491  1  0.22310000  0.59130000  0.67810000  1.0
  C  C492  1  0.42690000  0.40220000  0.69620000  1.0
  C  C493  1  0.35770000  0.36240000  0.70040000  1.0
  C  C494  1  0.36030000  0.34090000  0.66290000  1.0
  C  C495  1  0.31150000  0.30210000  0.65890000  1.0
  C  C496  1  0.27690000  0.28880000  0.69960000  1.0
  C  C497  1  0.29730000  0.34840000  0.73500000  1.0
  C  C498  1  0.27640000  0.37280000  0.77300000  1.0
  C  C499  1  0.27530000  0.38170000  0.84270000  1.0
  C  C500  1  0.20710000  0.41740000  0.84840000  1.0
  C  C501  1  0.17480000  0.43160000  0.81260000  1.0
  C  C502  1  0.20200000  0.41040000  0.77440000  1.0
  C  C503  1  0.14590000  0.42990000  0.73950000  1.0
  C  C504  1  0.28090000  0.23050000  0.42110000  1.0
  C  C505  1  0.14990000  0.25470000  0.42010000  1.0
  C  C506  1  0.08280000  0.24280000  0.39080000  1.0
  C  C507  1  0.96460000  0.26540000  0.38900000  1.0
  C  C508  1  0.92010000  0.29840000  0.41440000  1.0
  C  C509  1  0.09700000  0.28820000  0.44540000  1.0
  C  C510  1  0.16340000  0.30580000  0.47540000  1.0
  C  C511  1  0.20030000  0.36710000  0.49910000  1.0
  C  C512  1  0.28230000  0.34720000  0.52340000  1.0
  C  C513  1  0.29600000  0.30380000  0.52640000  1.0
  C  C514  1  0.23190000  0.28280000  0.50260000  1.0
  C  C515  1  0.23140000  0.23740000  0.51120000  1.0
  C  C516  1  0.39880000  0.11290000  0.57630000  1.0
  C  C517  1  0.32980000  0.09030000  0.61170000  1.0
  C  C518  1  0.31220000  0.10770000  0.65110000  1.0
  C  C519  1  0.26980000  0.08400000  0.68500000  1.0
  C  C520  1  0.24760000  0.04360000  0.67740000  1.0
  C  C521  1  0.29760000  0.05160000  0.60740000  1.0
  C  C522  1  0.30680000  0.03070000  0.56810000  1.0
  C  C523  1  0.38160000  0.96870000  0.53150000  1.0
  C  C524  1  0.34760000  0.98690000  0.49590000  1.0
  C  C525  1  0.28550000  0.02700000  0.49680000  1.0
  C  C526  1  0.26270000  0.04930000  0.53250000  1.0
  C  C527  1  0.17690000  0.09180000  0.53560000  1.0
  C  C528  1  0.80970000  0.12380000  0.48240000  1.0
  C  C529  1  0.85600000  0.09070000  0.45190000  1.0
  C  C530  1  0.95680000  0.05860000  0.45980000  1.0
  C  C531  1  0.99400000  0.02520000  0.43440000  1.0
  C  C532  1  0.92900000  0.02060000  0.40300000  1.0
  C  C533  1  0.80620000  0.08550000  0.41690000  1.0
  C  C534  1  0.71150000  0.11680000  0.39920000  1.0
  C  C535  1  0.53300000  0.12470000  0.36910000  1.0
  C  C536  1  0.53370000  0.16520000  0.36300000  1.0
  C  C537  1  0.62730000  0.18270000  0.37510000  1.0
  C  C538  1  0.71460000  0.15880000  0.39400000  1.0
  C  C539  1  0.81440000  0.17810000  0.40870000  1.0
  C  C540  1  0.82910000  0.19620000  0.59780000  1.0
  C  C541  1  0.72010000  0.20040000  0.63760000  1.0
  C  C542  1  0.70120000  0.16290000  0.65910000  1.0
  C  C543  1  0.61360000  0.15890000  0.69790000  1.0
  C  C544  1  0.56570000  0.19960000  0.71120000  1.0
  C  C545  1  0.64570000  0.23500000  0.65160000  1.0
  C  C546  1  0.64920000  0.27300000  0.62720000  1.0
  C  C547  1  0.65700000  0.34270000  0.61830000  1.0
  C  C548  1  0.62450000  0.34840000  0.58260000  1.0
  C  C549  1  0.60640000  0.31260000  0.56840000  1.0
  C  C550  1  0.61240000  0.27440000  0.58960000  1.0
  C  C551  1  0.57580000  0.23950000  0.57010000  1.0
  C  C552  1  0.43250000  0.26950000  0.07890000  1.0
  C  C553  1  0.32470000  0.24530000  0.07990000  1.0
  C  C554  1  0.21640000  0.25720000  0.10920000  1.0
  C  C555  1  0.11900000  0.23460000  0.11100000  1.0
  C  C556  1  0.13290000  0.20160000  0.08560000  1.0
  C  C557  1  0.33060000  0.21180000  0.05460000  1.0
  C  C558  1  0.44460000  0.19420000  0.02460000  1.0
  C  C559  1  0.56650000  0.13290000  0.00090000  1.0
  C  C560  1  0.65290000  0.15280000  0.97660000  1.0
  C  C561  1  0.62620000  0.19620000  0.97360000  1.0
  C  C562  1  0.51730000  0.21720000  0.99740000  1.0
  C  C563  1  0.48000000  0.26260000  0.98880000  1.0
  C  C564  1  0.58800000  0.38710000  0.92370000  1.0
  C  C565  1  0.53180000  0.40970000  0.88830000  1.0
  C  C566  1  0.57100000  0.39230000  0.84890000  1.0
  C  C567  1  0.53880000  0.41600000  0.81500000  1.0
  C  C568  1  0.46860000  0.45640000  0.82260000  1.0
  C  C569  1  0.45660000  0.44840000  0.89260000  1.0
  C  C570  1  0.40560000  0.46930000  0.93190000  1.0
  C  C571  1  0.38180000  0.53130000  0.96850000  1.0
  C  C572  1  0.33040000  0.51310000  0.00410000  1.0
  C  C573  1  0.30930000  0.47300000  0.00320000  1.0
  C  C574  1  0.34450000  0.45070000  0.96750000  1.0
  C  C575  1  0.30430000  0.40820000  0.96440000  1.0
  C  C576  1  0.91590000  0.37620000  0.01760000  1.0
  C  C577  1  0.89860000  0.40930000  0.04810000  1.0
  C  C578  1  0.97520000  0.44140000  0.04020000  1.0
  C  C579  1  0.95360000  0.47480000  0.06560000  1.0
  C  C580  1  0.85260000  0.47940000  0.09700000  1.0
  C  C581  1  0.80860000  0.41450000  0.08310000  1.0
  C  C582  1  0.72750000  0.38320000  0.10080000  1.0
  C  C583  1  0.52680000  0.37530000  0.13090000  1.0
  C  C584  1  0.56190000  0.33480000  0.13700000  1.0
  C  C585  1  0.68510000  0.31730000  0.12490000  1.0
  C  C586  1  0.76740000  0.34120000  0.10600000  1.0
  C  C587  1  0.90120000  0.32190000  0.09130000  1.0
  C  C588  1  0.12310000  0.30380000  0.90220000  1.0
  C  C589  1  0.05810000  0.29960000  0.86240000  1.0
  C  C590  1  0.02320000  0.33710000  0.84090000  1.0
  C  C591  1  0.97040000  0.34110000  0.80210000  1.0
  C  C592  1  0.97650000  0.30040000  0.78880000  1.0
  C  C593  1  0.03230000  0.26500000  0.84840000  1.0
  C  C594  1  0.04940000  0.22700000  0.87280000  1.0
  C  C595  1  0.11800000  0.15730000  0.88170000  1.0
  C  C596  1  0.05550000  0.15160000  0.91740000  1.0
  C  C597  1  0.98740000  0.18740000  0.93160000  1.0
  C  C598  1  0.97640000  0.22560000  0.91040000  1.0
  C  C599  1  0.88540000  0.26050000  0.92990000  1.0
  N  N600  1  0.71070000  0.85840000  0.02820000  1.0
  N  N601  1  0.64740000  0.93330000  0.99110000  1.0
  N  N602  1  0.11360000  0.10670000  0.05090000  1.0
  N  N603  1  0.28190000  0.11320000  0.09880000  1.0
  N  N604  1  0.70750000  0.05750000  0.31030000  1.0
  N  N605  1  0.51220000  0.02440000  0.34720000  1.0
  N  N606  1  0.01140000  0.85540000  0.30940000  1.0
  N  N607  1  0.18420000  0.80930000  0.23570000  1.0
  N  N608  1  0.09730000  0.64160000  0.47180000  1.0
  N  N609  1  0.07180000  0.56670000  0.50890000  1.0
  N  N610  1  0.77120000  0.39330000  0.44910000  1.0
  N  N611  1  0.99390000  0.38680000  0.40120000  1.0
  N  N612  1  0.57530000  0.44250000  0.18970000  1.0
  N  N613  1  0.38380000  0.47560000  0.15280000  1.0
  N  N614  1  0.67620000  0.64460000  0.19060000  1.0
  N  N615  1  0.72920000  0.69070000  0.26430000  1.0
  N  N616  1  0.73890000  0.97180000  0.35840000  1.0
  N  N617  1  0.63850000  0.00890000  0.43330000  1.0
  N  N618  1  0.16450000  0.94910000  0.60670000  1.0
  N  N619  1  0.38070000  0.90120000  0.61320000  1.0
  N  N620  1  0.01780000  0.68970000  0.55750000  1.0
  N  N621  1  0.85940000  0.65280000  0.52440000  1.0
  N  N622  1  0.32080000  0.69060000  0.35540000  1.0
  N  N623  1  0.41990000  0.76430000  0.30930000  1.0
  N  N624  1  0.56910000  0.52820000  0.14160000  1.0
  N  N625  1  0.58070000  0.49110000  0.06670000  1.0
  N  N626  1  0.22030000  0.55090000  0.89330000  1.0
  N  N627  1  0.39510000  0.59880000  0.88680000  1.0
  N  N628  1  0.76500000  0.81030000  0.94250000  1.0
  N  N629  1  0.53660000  0.84720000  0.97560000  1.0
  N  N630  1  0.86680000  0.80940000  0.14460000  1.0
  N  N631  1  0.99350000  0.73570000  0.19070000  1.0
  N  N632  1  0.28930000  0.14160000  0.97180000  1.0
  N  N633  1  0.35260000  0.06670000  0.00890000  1.0
  N  N634  1  0.88640000  0.89330000  0.94910000  1.0
  N  N635  1  0.71810000  0.88680000  0.90120000  1.0
  N  N636  1  0.29250000  0.94250000  0.68970000  1.0
  N  N637  1  0.48780000  0.97560000  0.65280000  1.0
  N  N638  1  0.98860000  0.14460000  0.69060000  1.0
  N  N639  1  0.81580000  0.19070000  0.76430000  1.0
  N  N640  1  0.90270000  0.35840000  0.52820000  1.0
  N  N641  1  0.92820000  0.43330000  0.49110000  1.0
  N  N642  1  0.22880000  0.60670000  0.55090000  1.0
  N  N643  1  0.00610000  0.61320000  0.59880000  1.0
  N  N644  1  0.42470000  0.55750000  0.81030000  1.0
  N  N645  1  0.61620000  0.52440000  0.84720000  1.0
  N  N646  1  0.32380000  0.35540000  0.80940000  1.0
  N  N647  1  0.27080000  0.30930000  0.73570000  1.0
  N  N648  1  0.26110000  0.02820000  0.64160000  1.0
  N  N649  1  0.36150000  0.99110000  0.56670000  1.0
  N  N650  1  0.83550000  0.05090000  0.39330000  1.0
  N  N651  1  0.61930000  0.09880000  0.38680000  1.0
  N  N652  1  0.98220000  0.31030000  0.44250000  1.0
  N  N653  1  0.14060000  0.34720000  0.47560000  1.0
  N  N654  1  0.67920000  0.30940000  0.64460000  1.0
  N  N655  1  0.58010000  0.23570000  0.69070000  1.0
  N  N656  1  0.43090000  0.47180000  0.85840000  1.0
  N  N657  1  0.41930000  0.50890000  0.93330000  1.0
  N  N658  1  0.77970000  0.44910000  0.10670000  1.0
  N  N659  1  0.60490000  0.40120000  0.11320000  1.0
  N  N660  1  0.23500000  0.18970000  0.05750000  1.0
  N  N661  1  0.46340000  0.15280000  0.02440000  1.0
  N  N662  1  0.13320000  0.19060000  0.85540000  1.0
  N  N663  1  0.00650000  0.26430000  0.80930000  1.0
  O  O664  1  0.51784000  0.07664000  0.19208000  1.0
  O  O665  1  0.38092000  0.07865000  0.25091000  1.0
  O  O666  1  0.64383000  0.99208000  0.22446000  1.0
  O  O667  1  0.45773000  0.97674000  0.21680000  1.0
  O  O668  1  0.47649000  0.92236000  0.15166000  1.0
  O  O669  1  0.43060000  0.94970000  0.09310000  1.0
  O  O670  1  0.83519000  0.94347000  0.09435000  1.0
  O  O671  1  0.66303000  0.98556000  0.12078000  1.0
  O  O672  1  0.91106000  0.09994000  0.16014000  1.0
  O  O673  1  0.00890000  0.07170000  0.21110000  1.0
  O  O674  1  0.98447000  0.99600000  0.13306000  1.0
  O  O675  1  0.16621000  0.01473000  0.13965000  1.0
  O  O676  1  0.13150000  0.96240000  0.22600000  1.0
  O  O677  1  0.29380000  0.91540000  0.22560000  1.0
  O  O678  1  0.98090000  0.91780000  0.16340000  1.0
  O  O679  1  0.89080000  0.91170000  0.22670000  1.0
  O  O680  1  0.28656000  0.42336000  0.30792000  1.0
  O  O681  1  0.21048000  0.42135000  0.24909000  1.0
  O  O682  1  0.36037000  0.50792000  0.27554000  1.0
  O  O683  1  0.15127000  0.52326000  0.28320000  1.0
  O  O684  1  0.05051000  0.57764000  0.34834000  1.0
  O  O685  1  0.97340000  0.55030000  0.40690000  1.0
  O  O686  1  0.37301000  0.55653000  0.40565000  1.0
  O  O687  1  0.26937000  0.51444000  0.37922000  1.0
  O  O688  1  0.67114000  0.40006000  0.33986000  1.0
  O  O689  1  0.79170000  0.42830000  0.28890000  1.0
  O  O690  1  0.61353000  0.50400000  0.36694000  1.0
  O  O691  1  0.82059000  0.48527000  0.36035000  1.0
  O  O692  1  0.81990000  0.53760000  0.27400000  1.0
  O  O693  1  0.93480000  0.58460000  0.27440000  1.0
  O  O694  1  0.56210000  0.58220000  0.33660000  1.0
  O  O695  1  0.52920000  0.58830000  0.27330000  1.0
  O  O696  1  0.70992000  0.80792000  0.57664000  1.0
  O  O697  1  0.63183000  0.74909000  0.57865000  1.0
  O  O698  1  0.86829000  0.77554000  0.49208000  1.0
  O  O699  1  0.67453000  0.78320000  0.47674000  1.0
  O  O700  1  0.62815000  0.84834000  0.42236000  1.0
  O  O701  1  0.52370000  0.90690000  0.44970000  1.0
  O  O702  1  0.92954000  0.90565000  0.44347000  1.0
  O  O703  1  0.78381000  0.87922000  0.48556000  1.0
  O  O704  1  0.07120000  0.83986000  0.59994000  1.0
  O  O705  1  0.22000000  0.78890000  0.57170000  1.0
  O  O706  1  0.11753000  0.86694000  0.49600000  1.0
  O  O707  1  0.30586000  0.86035000  0.51473000  1.0
  O  O708  1  0.35750000  0.77400000  0.46240000  1.0
  O  O709  1  0.51940000  0.77440000  0.41540000  1.0
  O  O710  1  0.14430000  0.83660000  0.41780000  1.0
  O  O711  1  0.11750000  0.77330000  0.41170000  1.0
  O  O712  1  0.59448000  0.69208000  0.92336000  1.0
  O  O713  1  0.45957000  0.75091000  0.92135000  1.0
  O  O714  1  0.63591000  0.72446000  0.00792000  1.0
  O  O715  1  0.43447000  0.71680000  0.02326000  1.0
  O  O716  1  0.39885000  0.65166000  0.07764000  1.0
  O  O717  1  0.38030000  0.59310000  0.05030000  1.0
  O  O718  1  0.77866000  0.59435000  0.05653000  1.0
  O  O719  1  0.64859000  0.62078000  0.01444000  1.0
  O  O720  1  0.01100000  0.66014000  0.90006000  1.0
  O  O721  1  0.08060000  0.71110000  0.92830000  1.0
  O  O722  1  0.98047000  0.63306000  0.00400000  1.0
  O  O723  1  0.18094000  0.63965000  0.98527000  1.0
  O  O724  1  0.09390000  0.72600000  0.03760000  1.0
  O  O725  1  0.20920000  0.72560000  0.08460000  1.0
  O  O726  1  0.89870000  0.66340000  0.08220000  1.0
  O  O727  1  0.80250000  0.72670000  0.08830000  1.0
  O  O728  1  0.48216000  0.92336000  0.80792000  1.0
  O  O729  1  0.61908000  0.92135000  0.74909000  1.0
  O  O730  1  0.35617000  0.00792000  0.77554000  1.0
  O  O731  1  0.54227000  0.02326000  0.78320000  1.0
  O  O732  1  0.52351000  0.07764000  0.84834000  1.0
  O  O733  1  0.56940000  0.05030000  0.90690000  1.0
  O  O734  1  0.16481000  0.05653000  0.90565000  1.0
  O  O735  1  0.33697000  0.01444000  0.87922000  1.0
  O  O736  1  0.08894000  0.90006000  0.83986000  1.0
  O  O737  1  0.99110000  0.92830000  0.78890000  1.0
  O  O738  1  0.01553000  0.00400000  0.86694000  1.0
  O  O739  1  0.83379000  0.98527000  0.86035000  1.0
  O  O740  1  0.86850000  0.03760000  0.77400000  1.0
  O  O741  1  0.70620000  0.08460000  0.77440000  1.0
  O  O742  1  0.01910000  0.08220000  0.83660000  1.0
  O  O743  1  0.10920000  0.08830000  0.77330000  1.0
  O  O744  1  0.71344000  0.57664000  0.69208000  1.0
  O  O745  1  0.78952000  0.57865000  0.75091000  1.0
  O  O746  1  0.63963000  0.49208000  0.72446000  1.0
  O  O747  1  0.84873000  0.47674000  0.71680000  1.0
  O  O748  1  0.94949000  0.42236000  0.65166000  1.0
  O  O749  1  0.02660000  0.44970000  0.59310000  1.0
  O  O750  1  0.62699000  0.44347000  0.59435000  1.0
  O  O751  1  0.73063000  0.48556000  0.62078000  1.0
  O  O752  1  0.32886000  0.59994000  0.66014000  1.0
  O  O753  1  0.20830000  0.57170000  0.71110000  1.0
  O  O754  1  0.38647000  0.49600000  0.63306000  1.0
  O  O755  1  0.17941000  0.51473000  0.63965000  1.0
  O  O756  1  0.18010000  0.46240000  0.72600000  1.0
  O  O757  1  0.06520000  0.41540000  0.72560000  1.0
  O  O758  1  0.43790000  0.41780000  0.66340000  1.0
  O  O759  1  0.47080000  0.41170000  0.72670000  1.0
  O  O760  1  0.29008000  0.19208000  0.42336000  1.0
  O  O761  1  0.36817000  0.25091000  0.42135000  1.0
  O  O762  1  0.13171000  0.22446000  0.50792000  1.0
  O  O763  1  0.32547000  0.21680000  0.52326000  1.0
  O  O764  1  0.37185000  0.15166000  0.57764000  1.0
  O  O765  1  0.47630000  0.09310000  0.55030000  1.0
  O  O766  1  0.07046000  0.09435000  0.55653000  1.0
  O  O767  1  0.21619000  0.12078000  0.51444000  1.0
  O  O768  1  0.92880000  0.16014000  0.40006000  1.0
  O  O769  1  0.78000000  0.21110000  0.42830000  1.0
  O  O770  1  0.88247000  0.13306000  0.50400000  1.0
  O  O771  1  0.69414000  0.13965000  0.48527000  1.0
  O  O772  1  0.64250000  0.22600000  0.53760000  1.0
  O  O773  1  0.48060000  0.22560000  0.58460000  1.0
  O  O774  1  0.85570000  0.16340000  0.58220000  1.0
  O  O775  1  0.88250000  0.22670000  0.58830000  1.0
  O  O776  1  0.40552000  0.30792000  0.07664000  1.0
  O  O777  1  0.54043000  0.24909000  0.07865000  1.0
  O  O778  1  0.36409000  0.27554000  0.99208000  1.0
  O  O779  1  0.56553000  0.28320000  0.97674000  1.0
  O  O780  1  0.60115000  0.34834000  0.92236000  1.0
  O  O781  1  0.61970000  0.40690000  0.94970000  1.0
  O  O782  1  0.22134000  0.40565000  0.94347000  1.0
  O  O783  1  0.35141000  0.37922000  0.98556000  1.0
  O  O784  1  0.98900000  0.33986000  0.09994000  1.0
  O  O785  1  0.91940000  0.28890000  0.07170000  1.0
  O  O786  1  0.01953000  0.36694000  0.99600000  1.0
  O  O787  1  0.81906000  0.36035000  0.01473000  1.0
  O  O788  1  0.90610000  0.27400000  0.96240000  1.0
  O  O789  1  0.79080000  0.27440000  0.91540000  1.0
  O  O790  1  0.10130000  0.33660000  0.91780000  1.0
  O  O791  1  0.19750000  0.27330000  0.91170000  1.0
