# generated using pymatgen
data_Gd2CoH24C48(NO2)8
_symmetry_space_group_name_H-M   'P 1'
_cell_length_a   10.78360000
_cell_length_b   32.41560000
_cell_length_c   32.41560000
_cell_angle_alpha   88.41460000
_cell_angle_beta   80.42530000
_cell_angle_gamma   80.42530000
_symmetry_Int_Tables_number   1
_chemical_formula_structural   Gd2CoH24C48(NO2)8
_chemical_formula_sum   'Gd16 Co8 H192 C384 N64 O128'
_cell_volume   11017.60053780
_cell_formula_units_Z   8
loop_
 _symmetry_equiv_pos_site_id
 _symmetry_equiv_pos_as_xyz
  1  'x, y, z'
loop_
 _atom_site_type_symbol
 _atom_site_label
 _atom_site_symmetry_multiplicity
 _atom_site_fract_x
 _atom_site_fract_y
 _atom_site_fract_z
 _atom_site_occupancy
  Gd  Gd0  1  0.80821000  0.17183000  0.97377000  1.0
  Gd  Gd1  1  0.30507000  0.17527000  0.97552000  1.0
  Gd  Gd2  1  0.45382000  0.32817000  0.52622000  1.0
  Gd  Gd3  1  0.95585000  0.32473000  0.52448000  1.0
  Gd  Gd4  1  0.78199000  0.02622000  0.67183000  1.0
  Gd  Gd5  1  0.28058000  0.02448000  0.67527000  1.0
  Gd  Gd6  1  0.98003000  0.47378000  0.82818000  1.0
  Gd  Gd7  1  0.48034000  0.47552000  0.82472000  1.0
  Gd  Gd8  1  0.19180000  0.82817000  0.02622000  1.0
  Gd  Gd9  1  0.69494000  0.82473000  0.02447000  1.0
  Gd  Gd10  1  0.54618000  0.67183000  0.47378000  1.0
  Gd  Gd11  1  0.04415000  0.67527000  0.47552000  1.0
  Gd  Gd12  1  0.21801000  0.97378000  0.32818000  1.0
  Gd  Gd13  1  0.71942000  0.97552000  0.32473000  1.0
  Gd  Gd14  1  0.01997000  0.52622000  0.17183000  1.0
  Gd  Gd15  1  0.51966000  0.52448000  0.17528000  1.0
  Co  Co16  1  0.29358000  0.03489000  0.12759000  1.0
  Co  Co17  1  0.95606000  0.46511000  0.37241000  1.0
  Co  Co18  1  0.42117000  0.87241000  0.53489000  1.0
  Co  Co19  1  0.32847000  0.62759000  0.96511000  1.0
  Co  Co20  1  0.70642000  0.96511000  0.87241000  1.0
  Co  Co21  1  0.04394000  0.53489000  0.62759000  1.0
  Co  Co22  1  0.57883000  0.12759000  0.46511000  1.0
  Co  Co23  1  0.67153000  0.37241000  0.03489000  1.0
  H  H24  1  0.06480000  0.08420000  0.18560000  1.0
  H  H25  1  0.04340000  0.12770000  0.24150000  1.0
  H  H26  1  0.20860000  0.12470000  0.27830000  1.0
  H  H27  1  0.68370000  0.95600000  0.20960000  1.0
  H  H28  1  0.73450000  0.96210000  0.13850000  1.0
  H  H29  1  0.58950000  0.00070000  0.10270000  1.0
  H  H30  1  0.25350000  0.97080000  0.20100000  1.0
  H  H31  1  0.35180000  0.90380000  0.21160000  1.0
  H  H32  1  0.47070000  0.86710000  0.15510000  1.0
  H  H33  1  0.30180000  0.96030000  0.97290000  1.0
  H  H34  1  0.34050000  0.02750000  0.97150000  1.0
  H  H35  1  0.36320000  0.05800000  0.03160000  1.0
  H  H36  1  0.05620000  0.99500000  0.11260000  1.0
  H  H37  1  0.93850000  0.00190000  0.06010000  1.0
  H  H38  1  0.94090000  0.06030000  0.01850000  1.0
  H  H39  1  0.16150000  0.20840000  0.12880000  1.0
  H  H40  1  0.35440000  0.17960000  0.14840000  1.0
  H  H41  1  0.42410000  0.10980000  0.13820000  1.0
  H  H42  1  0.95240000  0.36820000  0.87540000  1.0
  H  H43  1  0.03420000  0.37400000  0.92940000  1.0
  H  H44  1  0.10070000  0.31120000  0.95780000  1.0
  H  H45  1  0.12060000  0.13510000  0.85130000  1.0
  H  H46  1  0.27310000  0.13520000  0.78740000  1.0
  H  H47  1  0.25660000  0.20180000  0.75920000  1.0
  H  H48  1  0.83460000  0.41580000  0.31440000  1.0
  H  H49  1  0.91260000  0.37230000  0.25850000  1.0
  H  H50  1  0.11160000  0.37530000  0.22170000  1.0
  H  H51  1  0.34930000  0.54400000  0.29040000  1.0
  H  H52  1  0.33510000  0.53790000  0.36150000  1.0
  H  H53  1  0.19290000  0.49930000  0.39730000  1.0
  H  H54  1  0.92530000  0.52920000  0.29900000  1.0
  H  H55  1  0.96720000  0.59620000  0.28840000  1.0
  H  H56  1  0.99290000  0.63290000  0.34490000  1.0
  H  H57  1  0.73500000  0.53970000  0.52710000  1.0
  H  H58  1  0.83950000  0.47250000  0.52850000  1.0
  H  H59  1  0.95280000  0.44200000  0.46840000  1.0
  H  H60  1  0.66380000  0.50500000  0.38740000  1.0
  H  H61  1  0.50050000  0.49810000  0.43990000  1.0
  H  H62  1  0.51970000  0.43970000  0.48150000  1.0
  H  H63  1  0.99870000  0.29160000  0.37120000  1.0
  H  H64  1  0.18240000  0.32040000  0.35160000  1.0
  H  H65  1  0.17210000  0.39020000  0.36180000  1.0
  H  H66  1  0.69600000  0.13180000  0.62460000  1.0
  H  H67  1  0.83760000  0.12600000  0.57060000  1.0
  H  H68  1  0.86970000  0.18880000  0.54220000  1.0
  H  H69  1  0.60700000  0.36490000  0.64870000  1.0
  H  H70  1  0.69570000  0.36480000  0.71260000  1.0
  H  H71  1  0.71760000  0.29820000  0.74080000  1.0
  H  H72  1  0.25040000  0.81440000  0.58420000  1.0
  H  H73  1  0.28490000  0.75850000  0.62770000  1.0
  H  H74  1  0.48690000  0.72170000  0.62470000  1.0
  H  H75  1  0.89330000  0.79040000  0.45600000  1.0
  H  H76  1  0.87300000  0.86150000  0.46210000  1.0
  H  H77  1  0.69220000  0.89730000  0.50070000  1.0
  H  H78  1  0.45450000  0.79900000  0.47080000  1.0
  H  H79  1  0.56340000  0.78840000  0.40380000  1.0
  H  H80  1  0.62580000  0.84490000  0.36710000  1.0
  H  H81  1  0.27470000  0.02710000  0.46030000  1.0
  H  H82  1  0.31200000  0.02850000  0.52750000  1.0
  H  H83  1  0.39480000  0.96840000  0.55800000  1.0
  H  H84  1  0.16880000  0.88740000  0.49500000  1.0
  H  H85  1  0.99860000  0.93990000  0.50190000  1.0
  H  H86  1  0.95940000  0.98150000  0.56030000  1.0
  H  H87  1  0.29030000  0.87120000  0.70840000  1.0
  H  H88  1  0.50280000  0.85160000  0.67960000  1.0
  H  H89  1  0.56230000  0.86180000  0.60980000  1.0
  H  H90  1  0.82780000  0.12460000  0.86820000  1.0
  H  H91  1  0.96360000  0.07060000  0.87400000  1.0
  H  H92  1  0.05850000  0.04220000  0.81120000  1.0
  H  H93  1  0.97190000  0.14870000  0.63510000  1.0
  H  H94  1  0.06050000  0.21260000  0.63520000  1.0
  H  H95  1  0.01580000  0.24080000  0.70180000  1.0
  H  H96  1  0.14900000  0.68560000  0.91580000  1.0
  H  H97  1  0.17110000  0.74150000  0.87230000  1.0
  H  H98  1  0.33333333  0.77830000  0.87530000  1.0
  H  H99  1  0.63970000  0.70960000  0.04400000  1.0
  H  H100  1  0.69660000  0.63850000  0.03790000  1.0
  H  H101  1  0.59020000  0.60270000  0.99930000  1.0
  H  H102  1  0.22430000  0.70100000  0.02920000  1.0
  H  H103  1  0.25560000  0.71160000  0.09620000  1.0
  H  H104  1  0.33780000  0.65510000  0.13290000  1.0
  H  H105  1  0.26210000  0.47290000  0.03970000  1.0
  H  H106  1  0.36800000  0.47150000  0.97250000  1.0
  H  H107  1  0.42120000  0.53160000  0.94200000  1.0
  H  H108  1  0.05120000  0.61260000  0.00500000  1.0
  H  H109  1  0.94040000  0.56010000  0.99810000  1.0
  H  H110  1  0.00120000  0.51850000  0.93970000  1.0
  H  H111  1  0.36990000  0.62880000  0.79160000  1.0
  H  H112  1  0.53400000  0.64840000  0.82040000  1.0
  H  H113  1  0.53390000  0.63820000  0.89020000  1.0
  H  H114  1  0.32060000  0.37540000  0.63180000  1.0
  H  H115  1  0.40820000  0.42940000  0.62600000  1.0
  H  H116  1  0.41190000  0.45780000  0.68880000  1.0
  H  H117  1  0.25570000  0.35130000  0.86490000  1.0
  H  H118  1  0.40830000  0.28740000  0.86480000  1.0
  H  H119  1  0.45840000  0.25920000  0.79820000  1.0
  H  H120  1  0.93520000  0.91580000  0.81440000  1.0
  H  H121  1  0.95660000  0.87230000  0.75850000  1.0
  H  H122  1  0.79140000  0.87530000  0.72170000  1.0
  H  H123  1  0.31630000  0.04400000  0.79040000  1.0
  H  H124  1  0.26550000  0.03790000  0.86150000  1.0
  H  H125  1  0.41050000  0.99930000  0.89730000  1.0
  H  H126  1  0.74650000  0.02920000  0.79900000  1.0
  H  H127  1  0.64820000  0.09620000  0.78840000  1.0
  H  H128  1  0.52930000  0.13290000  0.84490000  1.0
  H  H129  1  0.69820000  0.03970000  0.02710000  1.0
  H  H130  1  0.65950000  0.97250000  0.02850000  1.0
  H  H131  1  0.63680000  0.94200000  0.96840000  1.0
  H  H132  1  0.94380000  0.00500000  0.88740000  1.0
  H  H133  1  0.06150000  0.99810000  0.93990000  1.0
  H  H134  1  0.05910000  0.93970000  0.98150000  1.0
  H  H135  1  0.83850000  0.79160000  0.87120000  1.0
  H  H136  1  0.64560000  0.82040000  0.85160000  1.0
  H  H137  1  0.57590000  0.89020000  0.86180000  1.0
  H  H138  1  0.04760000  0.63180000  0.12460000  1.0
  H  H139  1  0.96580000  0.62600000  0.07060000  1.0
  H  H140  1  0.89930000  0.68880000  0.04220000  1.0
  H  H141  1  0.87940000  0.86490000  0.14870000  1.0
  H  H142  1  0.72690000  0.86480000  0.21260000  1.0
  H  H143  1  0.74340000  0.79820000  0.24080000  1.0
  H  H144  1  0.16540000  0.58420000  0.68560000  1.0
  H  H145  1  0.08740000  0.62770000  0.74150000  1.0
  H  H146  1  0.88840000  0.62470000  0.77830000  1.0
  H  H147  1  0.65070000  0.45600000  0.70960000  1.0
  H  H148  1  0.66490000  0.46210000  0.63850000  1.0
  H  H149  1  0.80710000  0.50070000  0.60270000  1.0
  H  H150  1  0.07470000  0.47080000  0.70100000  1.0
  H  H151  1  0.03280000  0.40380000  0.71160000  1.0
  H  H152  1  0.00710000  0.36710000  0.65510000  1.0
  H  H153  1  0.26500000  0.46030000  0.47290000  1.0
  H  H154  1  0.16050000  0.52750000  0.47150000  1.0
  H  H155  1  0.04720000  0.55800000  0.53160000  1.0
  H  H156  1  0.33620000  0.49500000  0.61260000  1.0
  H  H157  1  0.49950000  0.50190000  0.56010000  1.0
  H  H158  1  0.48030000  0.56030000  0.51850000  1.0
  H  H159  1  0.00130000  0.70840000  0.62880000  1.0
  H  H160  1  0.81760000  0.67960000  0.64840000  1.0
  H  H161  1  0.82790000  0.60980000  0.63820000  1.0
  H  H162  1  0.30400000  0.86820000  0.37540000  1.0
  H  H163  1  0.16240000  0.87400000  0.42940000  1.0
  H  H164  1  0.13030000  0.81120000  0.45780000  1.0
  H  H165  1  0.39300000  0.63510000  0.35130000  1.0
  H  H166  1  0.30430000  0.63520000  0.28740000  1.0
  H  H167  1  0.28240000  0.70180000  0.25920000  1.0
  H  H168  1  0.74960000  0.18560000  0.41580000  1.0
  H  H169  1  0.71510000  0.24150000  0.37230000  1.0
  H  H170  1  0.51310000  0.27830000  0.37530000  1.0
  H  H171  1  0.10670000  0.20960000  0.54400000  1.0
  H  H172  1  0.12700000  0.13850000  0.53790000  1.0
  H  H173  1  0.30780000  0.10270000  0.49930000  1.0
  H  H174  1  0.54550000  0.20100000  0.52920000  1.0
  H  H175  1  0.43660000  0.21160000  0.59620000  1.0
  H  H176  1  0.37420000  0.15510000  0.63290000  1.0
  H  H177  1  0.72530000  0.97290000  0.53970000  1.0
  H  H178  1  0.68800000  0.97150000  0.47250000  1.0
  H  H179  1  0.60520000  0.03160000  0.44200000  1.0
  H  H180  1  0.83120000  0.11260000  0.50500000  1.0
  H  H181  1  0.00140000  0.06010000  0.49810000  1.0
  H  H182  1  0.04060000  0.01850000  0.43970000  1.0
  H  H183  1  0.70970000  0.12880000  0.29160000  1.0
  H  H184  1  0.49720000  0.14840000  0.32040000  1.0
  H  H185  1  0.43770000  0.13820000  0.39020000  1.0
  H  H186  1  0.17220000  0.87540000  0.13180000  1.0
  H  H187  1  0.03640000  0.92940000  0.12600000  1.0
  H  H188  1  0.94150000  0.95780000  0.18880000  1.0
  H  H189  1  0.02810000  0.85130000  0.36490000  1.0
  H  H190  1  0.93950000  0.78740000  0.36480000  1.0
  H  H191  1  0.98420000  0.75920000  0.29820000  1.0
  H  H192  1  0.85100000  0.31440000  0.08420000  1.0
  H  H193  1  0.82890000  0.25850000  0.12770000  1.0
  H  H194  1  0.66666667  0.22170000  0.12470000  1.0
  H  H195  1  0.36030000  0.29040000  0.95600000  1.0
  H  H196  1  0.30340000  0.36150000  0.96210000  1.0
  H  H197  1  0.40980000  0.39730000  0.00070000  1.0
  H  H198  1  0.77570000  0.29900000  0.97080000  1.0
  H  H199  1  0.74440000  0.28840000  0.90380000  1.0
  H  H200  1  0.66220000  0.34490000  0.86710000  1.0
  H  H201  1  0.73790000  0.52710000  0.96030000  1.0
  H  H202  1  0.63200000  0.52850000  0.02750000  1.0
  H  H203  1  0.57880000  0.46840000  0.05800000  1.0
  H  H204  1  0.94880000  0.38740000  0.99500000  1.0
  H  H205  1  0.05960000  0.43990000  0.00190000  1.0
  H  H206  1  0.99880000  0.48150000  0.06030000  1.0
  H  H207  1  0.63010000  0.37120000  0.20840000  1.0
  H  H208  1  0.46600000  0.35160000  0.17960000  1.0
  H  H209  1  0.46610000  0.36180000  0.10980000  1.0
  H  H210  1  0.67940000  0.62460000  0.36820000  1.0
  H  H211  1  0.59180000  0.57060000  0.37400000  1.0
  H  H212  1  0.58810000  0.54220000  0.31120000  1.0
  H  H213  1  0.74430000  0.64870000  0.13510000  1.0
  H  H214  1  0.59170000  0.71260000  0.13520000  1.0
  H  H215  1  0.54160000  0.74080000  0.20180000  1.0
  C  C216  1  0.13180000  0.08310000  0.20050000  1.0
  C  C217  1  0.48405000  0.98916000  0.26154000  1.0
  C  C218  1  0.18100000  0.24110000  0.92990000  1.0
  C  C219  1  0.11850000  0.10900000  0.23380000  1.0
  C  C220  1  0.21600000  0.10710000  0.25550000  1.0
  C  C221  1  0.32546000  0.07925000  0.24383000  1.0
  C  C222  1  0.43481000  0.07839000  0.26799000  1.0
  C  C223  1  0.33388000  0.05377000  0.21027000  1.0
  C  C224  1  0.44676000  0.02374000  0.19334000  1.0
  C  C225  1  0.97720000  0.19460000  0.90520000  1.0
  C  C226  1  0.52246000  0.99714000  0.21594000  1.0
  C  C227  1  0.62971000  0.97389000  0.19489000  1.0
  C  C228  1  0.65830000  0.97650000  0.15290000  1.0
  C  C229  1  0.57360000  0.00050000  0.13190000  1.0
  C  C230  1  0.29590000  0.95470000  0.17810000  1.0
  C  C231  1  0.35670000  0.91520000  0.18480000  1.0
  C  C232  1  0.42410000  0.89340000  0.15120000  1.0
  C  C233  1  0.42490000  0.90910000  0.11170000  1.0
  C  C234  1  0.35290000  0.94740000  0.10720000  1.0
  C  C235  1  0.34270000  0.96820000  0.06720000  1.0
  C  C236  1  0.31732000  0.94948000  0.03288000  1.0
  C  C237  1  0.31659000  0.97221000  0.99701000  1.0
  C  C238  1  0.33741000  0.01224000  0.99634000  1.0
  C  C239  1  0.35350000  0.03000000  0.03180000  1.0
  C  C240  1  0.27572000  0.90788000  0.03488000  1.0
  C  C241  1  0.51410000  0.88560000  0.07660000  1.0
  C  C242  1  0.05300000  0.01920000  0.09640000  1.0
  C  C243  1  0.98470000  0.02250000  0.06510000  1.0
  C  C244  1  0.98590000  0.05730000  0.04090000  1.0
  C  C245  1  0.05222000  0.08830000  0.04846000  1.0
  C  C246  1  0.11011000  0.08369000  0.08369000  1.0
  C  C247  1  0.17451000  0.11460000  0.09998000  1.0
  C  C248  1  0.12842000  0.15612000  0.10544000  1.0
  C  C249  1  0.19365000  0.18017000  0.12413000  1.0
  C  C250  1  0.30706000  0.16318000  0.13630000  1.0
  C  C251  1  0.34740000  0.12178000  0.13002000  1.0
  C  C252  1  0.00542000  0.17598000  0.09198000  1.0
  C  C253  1  0.06392000  0.12275000  0.01821000  1.0
  C  C254  1  0.99980000  0.34370000  0.88370000  1.0
  C  C255  1  0.03770000  0.34840000  0.91660000  1.0
  C  C256  1  0.08360000  0.31200000  0.93060000  1.0
  C  C257  1  0.10940000  0.27460000  0.90920000  1.0
  C  C258  1  0.08010000  0.27030000  0.87150000  1.0
  C  C259  1  0.11390000  0.23250000  0.84710000  1.0
  C  C260  1  0.07410000  0.19920000  0.86440000  1.0
  C  C261  1  0.13830000  0.16060000  0.84000000  1.0
  C  C262  1  0.22480000  0.15900000  0.80080000  1.0
  C  C263  1  0.22200000  0.19900000  0.78720000  1.0
  C  C264  1  0.91540000  0.41690000  0.29950000  1.0
  C  C265  1  0.23475000  0.51084000  0.23846000  1.0
  C  C266  1  0.85200000  0.25890000  0.57010000  1.0
  C  C267  1  0.96130000  0.39100000  0.26620000  1.0
  C  C268  1  0.07860000  0.39290000  0.24450000  1.0
  C  C269  1  0.14854000  0.42075000  0.25617000  1.0
  C  C270  1  0.28119000  0.42161000  0.23201000  1.0
  C  C271  1  0.09792000  0.44623000  0.28973000  1.0
  C  C272  1  0.16384000  0.47626000  0.30666000  1.0
  C  C273  1  0.57700000  0.30540000  0.59480000  1.0
  C  C274  1  0.23554000  0.50286000  0.28406000  1.0
  C  C275  1  0.29849000  0.52611000  0.30511000  1.0
  C  C276  1  0.28770000  0.52350000  0.34710000  1.0
  C  C277  1  0.20600000  0.49950000  0.36810000  1.0
  C  C278  1  0.92870000  0.54530000  0.32190000  1.0
  C  C279  1  0.95670000  0.58480000  0.31520000  1.0
  C  C280  1  0.96870000  0.60660000  0.34880000  1.0
  C  C281  1  0.94570000  0.59090000  0.38830000  1.0
  C  C282  1  0.90750000  0.55260000  0.39280000  1.0
  C  C283  1  0.87810000  0.53180000  0.43280000  1.0
  C  C284  1  0.79968000  0.55052000  0.46712000  1.0
  C  C285  1  0.78581000  0.52779000  0.50299000  1.0
  C  C286  1  0.84599000  0.48776000  0.50366000  1.0
  C  C287  1  0.91530000  0.47000000  0.46820000  1.0
  C  C288  1  0.71848000  0.59212000  0.46512000  1.0
  C  C289  1  0.97630000  0.61440000  0.42340000  1.0
  C  C290  1  0.66860000  0.48080000  0.40360000  1.0
  C  C291  1  0.57230000  0.47750000  0.43490000  1.0
  C  C292  1  0.58410000  0.44270000  0.45910000  1.0
  C  C293  1  0.68898000  0.41170000  0.45154000  1.0
  C  C294  1  0.77749000  0.41631000  0.41631000  1.0
  C  C295  1  0.88909000  0.38540000  0.40002000  1.0
  C  C296  1  0.88998000  0.34388000  0.39456000  1.0
  C  C297  1  0.99795000  0.31983000  0.37587000  1.0
  C  C298  1  0.10654000  0.33682000  0.36370000  1.0
  C  C299  1  0.09920000  0.37822000  0.36998000  1.0
  C  C300  1  0.77338000  0.32402000  0.40802000  1.0
  C  C301  1  0.70488000  0.37725000  0.48179000  1.0
  C  C302  1  0.72720000  0.15630000  0.61630000  1.0
  C  C303  1  0.80270000  0.15160000  0.58340000  1.0
  C  C304  1  0.82620000  0.18800000  0.56940000  1.0
  C  C305  1  0.79320000  0.22540000  0.59080000  1.0
  C  C306  1  0.72190000  0.22970000  0.62850000  1.0
  C  C307  1  0.69350000  0.26750000  0.65290000  1.0
  C  C308  1  0.63770000  0.30080000  0.63560000  1.0
  C  C309  1  0.63890000  0.33940000  0.66000000  1.0
  C  C310  1  0.68460000  0.34100000  0.69920000  1.0
  C  C311  1  0.70820000  0.30100000  0.71280000  1.0
  C  C312  1  0.33230000  0.79950000  0.58310000  1.0
  C  C313  1  0.74559000  0.73846000  0.48916000  1.0
  C  C314  1  0.11090000  0.07010000  0.74110000  1.0
  C  C315  1  0.35230000  0.76620000  0.60900000  1.0
  C  C316  1  0.47150000  0.74450000  0.60710000  1.0
  C  C317  1  0.56929000  0.75617000  0.57925000  1.0
  C  C318  1  0.70280000  0.73201000  0.57839000  1.0
  C  C319  1  0.54415000  0.78973000  0.55377000  1.0
  C  C320  1  0.64010000  0.80666000  0.52374000  1.0
  C  C321  1  0.88240000  0.09480000  0.69460000  1.0
  C  C322  1  0.73840000  0.78406000  0.49714000  1.0
  C  C323  1  0.82460000  0.80511000  0.47389000  1.0
  C  C324  1  0.81120000  0.84710000  0.47650000  1.0
  C  C325  1  0.70550000  0.86810000  0.50050000  1.0
  C  C326  1  0.47400000  0.82190000  0.45470000  1.0
  C  C327  1  0.54150000  0.81520000  0.41520000  1.0
  C  C328  1  0.57530000  0.84880000  0.39340000  1.0
  C  C329  1  0.53660000  0.88830000  0.40910000  1.0
  C  C330  1  0.46010000  0.89280000  0.44740000  1.0
  C  C331  1  0.40990000  0.93280000  0.46820000  1.0
  C  C332  1  0.35020000  0.96712000  0.44948000  1.0
  C  C333  1  0.31360000  0.00299000  0.47221000  1.0
  C  C334  1  0.33375000  0.00366000  0.51224000  1.0
  C  C335  1  0.38530000  0.96820000  0.53000000  1.0
  C  C336  1  0.31060000  0.96512000  0.40788000  1.0
  C  C337  1  0.59070000  0.92340000  0.38560000  1.0
  C  C338  1  0.14940000  0.90360000  0.51920000  1.0
  C  C339  1  0.04980000  0.93490000  0.52250000  1.0
  C  C340  1  0.02680000  0.95910000  0.55730000  1.0
  C  C341  1  0.10068000  0.95154000  0.58830000  1.0
  C  C342  1  0.19380000  0.91631000  0.58369000  1.0
  C  C343  1  0.27449000  0.90002000  0.61460000  1.0
  C  C344  1  0.23386000  0.89456000  0.65612000  1.0
  C  C345  1  0.31778000  0.87587000  0.68017000  1.0
  C  C346  1  0.44336000  0.86370000  0.66318000  1.0
  C  C347  1  0.47742000  0.86998000  0.62178000  1.0
  C  C348  1  0.09740000  0.90802000  0.67598000  1.0
  C  C349  1  0.08213000  0.98179000  0.62275000  1.0
  C  C350  1  0.88350000  0.11630000  0.84370000  1.0
  C  C351  1  0.95430000  0.08340000  0.84840000  1.0
  C  C352  1  0.01420000  0.06940000  0.81200000  1.0
  C  C353  1  0.01860000  0.09080000  0.77460000  1.0
  C  C354  1  0.95160000  0.12850000  0.77030000  1.0
  C  C355  1  0.96100000  0.15290000  0.73250000  1.0
  C  C356  1  0.93850000  0.13560000  0.69920000  1.0
  C  C357  1  0.97830000  0.16000000  0.66060000  1.0
  C  C358  1  0.02560000  0.19920000  0.65900000  1.0
  C  C359  1  0.00920000  0.21280000  0.69900000  1.0
  C  C360  1  0.21490000  0.70050000  0.91690000  1.0
  C  C361  1  0.47321000  0.76154000  0.01084000  1.0
  C  C362  1  0.42210000  0.42990000  0.75890000  1.0
  C  C363  1  0.22750000  0.73380000  0.89100000  1.0
  C  C364  1  0.32310000  0.75550000  0.89290000  1.0
  C  C365  1  0.40471000  0.74383000  0.92075000  1.0
  C  C366  1  0.51320000  0.76799000  0.92161000  1.0
  C  C367  1  0.38765000  0.71027000  0.94623000  1.0
  C  C368  1  0.47050000  0.69334000  0.97626000  1.0
  C  C369  1  0.17180000  0.40520000  0.80540000  1.0
  C  C370  1  0.51960000  0.71594000  0.00286000  1.0
  C  C371  1  0.60360000  0.69489000  0.02611000  1.0
  C  C372  1  0.63480000  0.65290000  0.02350000  1.0
  C  C373  1  0.57410000  0.63190000  0.99950000  1.0
  C  C374  1  0.25060000  0.67810000  0.04530000  1.0
  C  C375  1  0.27190000  0.68480000  0.08480000  1.0
  C  C376  1  0.31750000  0.65120000  0.10660000  1.0
  C  C377  1  0.33400000  0.61170000  0.09090000  1.0
  C  C378  1  0.30030000  0.60720000  0.05260000  1.0
  C  C379  1  0.31090000  0.56720000  0.03180000  1.0
  C  C380  1  0.26680000  0.53288000  0.05052000  1.0
  C  C381  1  0.28880000  0.49701000  0.02779000  1.0
  C  C382  1  0.34965000  0.49634000  0.98776000  1.0
  C  C383  1  0.38350000  0.53180000  0.97000000  1.0
  C  C384  1  0.18360000  0.53488000  0.09212000  1.0
  C  C385  1  0.39970000  0.57660000  0.11440000  1.0
  C  C386  1  0.07220000  0.59640000  0.98080000  1.0
  C  C387  1  0.00720000  0.56510000  0.97750000  1.0
  C  C388  1  0.04320000  0.54090000  0.94270000  1.0
  C  C389  1  0.14052000  0.54846000  0.91170000  1.0
  C  C390  1  0.19380000  0.58369000  0.91631000  1.0
  C  C391  1  0.28911000  0.59998000  0.88540000  1.0
  C  C392  1  0.28454000  0.60544000  0.84388000  1.0
  C  C393  1  0.37382000  0.62413000  0.81983000  1.0
  C  C394  1  0.47024000  0.63630000  0.83682000  1.0
  C  C395  1  0.46918000  0.63002000  0.87822000  1.0
  C  C396  1  0.18140000  0.59198000  0.82402000  1.0
  C  C397  1  0.18667000  0.51821000  0.87725000  1.0
  C  C398  1  0.34350000  0.38370000  0.65630000  1.0
  C  C399  1  0.38610000  0.41660000  0.65160000  1.0
  C  C400  1  0.39560000  0.43060000  0.68800000  1.0
  C  C401  1  0.38400000  0.40920000  0.72540000  1.0
  C  C402  1  0.35040000  0.37150000  0.72970000  1.0
  C  C403  1  0.34640000  0.34710000  0.76750000  1.0
  C  C404  1  0.27330000  0.36440000  0.80080000  1.0
  C  C405  1  0.29890000  0.34000000  0.83940000  1.0
  C  C406  1  0.38380000  0.30080000  0.84100000  1.0
  C  C407  1  0.42100000  0.28720000  0.80100000  1.0
  C  C408  1  0.86820000  0.91690000  0.79950000  1.0
  C  C409  1  0.51595000  0.01084000  0.73846000  1.0
  C  C410  1  0.81900000  0.75890000  0.07010000  1.0
  C  C411  1  0.88150000  0.89100000  0.76620000  1.0
  C  C412  1  0.78400000  0.89290000  0.74450000  1.0
  C  C413  1  0.67454000  0.92075000  0.75617000  1.0
  C  C414  1  0.56519000  0.92161000  0.73201000  1.0
  C  C415  1  0.66612000  0.94623000  0.78973000  1.0
  C  C416  1  0.55324000  0.97626000  0.80666000  1.0
  C  C417  1  0.02280000  0.80540000  0.09480000  1.0
  C  C418  1  0.47754000  0.00286000  0.78406000  1.0
  C  C419  1  0.37029000  0.02611000  0.80511000  1.0
  C  C420  1  0.34170000  0.02350000  0.84710000  1.0
  C  C421  1  0.42640000  0.99950000  0.86810000  1.0
  C  C422  1  0.70410000  0.04530000  0.82190000  1.0
  C  C423  1  0.64330000  0.08480000  0.81520000  1.0
  C  C424  1  0.57590000  0.10660000  0.84880000  1.0
  C  C425  1  0.57510000  0.09090000  0.88830000  1.0
  C  C426  1  0.64710000  0.05260000  0.89280000  1.0
  C  C427  1  0.65730000  0.03180000  0.93280000  1.0
  C  C428  1  0.68268000  0.05052000  0.96712000  1.0
  C  C429  1  0.68341000  0.02779000  0.00299000  1.0
  C  C430  1  0.66259000  0.98776000  0.00366000  1.0
  C  C431  1  0.64650000  0.97000000  0.96820000  1.0
  C  C432  1  0.72428000  0.09212000  0.96512000  1.0
  C  C433  1  0.48590000  0.11440000  0.92340000  1.0
  C  C434  1  0.94700000  0.98080000  0.90360000  1.0
  C  C435  1  0.01530000  0.97750000  0.93490000  1.0
  C  C436  1  0.01410000  0.94270000  0.95910000  1.0
  C  C437  1  0.94778000  0.91170000  0.95154000  1.0
  C  C438  1  0.88989000  0.91631000  0.91631000  1.0
  C  C439  1  0.82549000  0.88540000  0.90002000  1.0
  C  C440  1  0.87158000  0.84388000  0.89456000  1.0
  C  C441  1  0.80635000  0.81983000  0.87587000  1.0
  C  C442  1  0.69294000  0.83682000  0.86370000  1.0
  C  C443  1  0.65260000  0.87822000  0.86998000  1.0
  C  C444  1  0.99458000  0.82402000  0.90802000  1.0
  C  C445  1  0.93608000  0.87725000  0.98179000  1.0
  C  C446  1  0.00020000  0.65630000  0.11630000  1.0
  C  C447  1  0.96230000  0.65160000  0.08340000  1.0
  C  C448  1  0.91640000  0.68800000  0.06940000  1.0
  C  C449  1  0.89060000  0.72540000  0.09080000  1.0
  C  C450  1  0.91990000  0.72970000  0.12850000  1.0
  C  C451  1  0.88610000  0.76750000  0.15290000  1.0
  C  C452  1  0.92590000  0.80080000  0.13560000  1.0
  C  C453  1  0.86170000  0.83940000  0.16000000  1.0
  C  C454  1  0.77520000  0.84100000  0.19920000  1.0
  C  C455  1  0.77800000  0.80100000  0.21280000  1.0
  C  C456  1  0.08460000  0.58310000  0.70050000  1.0
  C  C457  1  0.76525000  0.48916000  0.76154000  1.0
  C  C458  1  0.14800000  0.74110000  0.42990000  1.0
  C  C459  1  0.03870000  0.60900000  0.73380000  1.0
  C  C460  1  0.92140000  0.60710000  0.75550000  1.0
  C  C461  1  0.85146000  0.57925000  0.74383000  1.0
  C  C462  1  0.71881000  0.57839000  0.76799000  1.0
  C  C463  1  0.90208000  0.55377000  0.71027000  1.0
  C  C464  1  0.83616000  0.52374000  0.69334000  1.0
  C  C465  1  0.42300000  0.69460000  0.40520000  1.0
  C  C466  1  0.76446000  0.49714000  0.71594000  1.0
  C  C467  1  0.70151000  0.47389000  0.69489000  1.0
  C  C468  1  0.71230000  0.47650000  0.65290000  1.0
  C  C469  1  0.79400000  0.50050000  0.63190000  1.0
  C  C470  1  0.07130000  0.45470000  0.67810000  1.0
  C  C471  1  0.04330000  0.41520000  0.68480000  1.0
  C  C472  1  0.03130000  0.39340000  0.65120000  1.0
  C  C473  1  0.05430000  0.40910000  0.61170000  1.0
  C  C474  1  0.09250000  0.44740000  0.60720000  1.0
  C  C475  1  0.12190000  0.46820000  0.56720000  1.0
  C  C476  1  0.20032000  0.44948000  0.53288000  1.0
  C  C477  1  0.21419000  0.47221000  0.49701000  1.0
  C  C478  1  0.15401000  0.51224000  0.49634000  1.0
  C  C479  1  0.08470000  0.53000000  0.53180000  1.0
  C  C480  1  0.28152000  0.40788000  0.53488000  1.0
  C  C481  1  0.02370000  0.38560000  0.57660000  1.0
  C  C482  1  0.33140000  0.51920000  0.59640000  1.0
  C  C483  1  0.42770000  0.52250000  0.56510000  1.0
  C  C484  1  0.41590000  0.55730000  0.54090000  1.0
  C  C485  1  0.31102000  0.58830000  0.54846000  1.0
  C  C486  1  0.22251000  0.58369000  0.58369000  1.0
  C  C487  1  0.11091000  0.61460000  0.59998000  1.0
  C  C488  1  0.11002000  0.65612000  0.60544000  1.0
  C  C489  1  0.00205000  0.68017000  0.62413000  1.0
  C  C490  1  0.89346000  0.66318000  0.63630000  1.0
  C  C491  1  0.90080000  0.62178000  0.63002000  1.0
  C  C492  1  0.22662000  0.67598000  0.59198000  1.0
  C  C493  1  0.29512000  0.62275000  0.51821000  1.0
  C  C494  1  0.27280000  0.84370000  0.38370000  1.0
  C  C495  1  0.19730000  0.84840000  0.41660000  1.0
  C  C496  1  0.17380000  0.81200000  0.43060000  1.0
  C  C497  1  0.20680000  0.77460000  0.40920000  1.0
  C  C498  1  0.27810000  0.77030000  0.37150000  1.0
  C  C499  1  0.30650000  0.73250000  0.34710000  1.0
  C  C500  1  0.36230000  0.69920000  0.36440000  1.0
  C  C501  1  0.36110000  0.66060000  0.34000000  1.0
  C  C502  1  0.31540000  0.65900000  0.30080000  1.0
  C  C503  1  0.29180000  0.69900000  0.28720000  1.0
  C  C504  1  0.66770000  0.20050000  0.41690000  1.0
  C  C505  1  0.25441000  0.26154000  0.51084000  1.0
  C  C506  1  0.88910000  0.92990000  0.25890000  1.0
  C  C507  1  0.64770000  0.23380000  0.39100000  1.0
  C  C508  1  0.52850000  0.25550000  0.39290000  1.0
  C  C509  1  0.43071000  0.24383000  0.42075000  1.0
  C  C510  1  0.29720000  0.26799000  0.42161000  1.0
  C  C511  1  0.45585000  0.21027000  0.44623000  1.0
  C  C512  1  0.35990000  0.19334000  0.47626000  1.0
  C  C513  1  0.11760000  0.90520000  0.30540000  1.0
  C  C514  1  0.26160000  0.21594000  0.50286000  1.0
  C  C515  1  0.17540000  0.19489000  0.52611000  1.0
  C  C516  1  0.18880000  0.15290000  0.52350000  1.0
  C  C517  1  0.29450000  0.13190000  0.49950000  1.0
  C  C518  1  0.52600000  0.17810000  0.54530000  1.0
  C  C519  1  0.45850000  0.18480000  0.58480000  1.0
  C  C520  1  0.42470000  0.15120000  0.60660000  1.0
  C  C521  1  0.46340000  0.11170000  0.59090000  1.0
  C  C522  1  0.53990000  0.10720000  0.55260000  1.0
  C  C523  1  0.59010000  0.06720000  0.53180000  1.0
  C  C524  1  0.64980000  0.03288000  0.55052000  1.0
  C  C525  1  0.68640000  0.99701000  0.52779000  1.0
  C  C526  1  0.66625000  0.99634000  0.48776000  1.0
  C  C527  1  0.61470000  0.03180000  0.47000000  1.0
  C  C528  1  0.68940000  0.03488000  0.59212000  1.0
  C  C529  1  0.40930000  0.07660000  0.61440000  1.0
  C  C530  1  0.85060000  0.09640000  0.48080000  1.0
  C  C531  1  0.95020000  0.06510000  0.47750000  1.0
  C  C532  1  0.97320000  0.04090000  0.44270000  1.0
  C  C533  1  0.89932000  0.04846000  0.41170000  1.0
  C  C534  1  0.80620000  0.08369000  0.41631000  1.0
  C  C535  1  0.72551000  0.09998000  0.38540000  1.0
  C  C536  1  0.76614000  0.10544000  0.34388000  1.0
  C  C537  1  0.68222000  0.12413000  0.31983000  1.0
  C  C538  1  0.55664000  0.13630000  0.33682000  1.0
  C  C539  1  0.52258000  0.13002000  0.37822000  1.0
  C  C540  1  0.90260000  0.09198000  0.32402000  1.0
  C  C541  1  0.91787000  0.01821000  0.37725000  1.0
  C  C542  1  0.11650000  0.88370000  0.15630000  1.0
  C  C543  1  0.04570000  0.91660000  0.15160000  1.0
  C  C544  1  0.98580000  0.93060000  0.18800000  1.0
  C  C545  1  0.98140000  0.90920000  0.22540000  1.0
  C  C546  1  0.04840000  0.87150000  0.22970000  1.0
  C  C547  1  0.03900000  0.84710000  0.26750000  1.0
  C  C548  1  0.06150000  0.86440000  0.30080000  1.0
  C  C549  1  0.02170000  0.84000000  0.33940000  1.0
  C  C550  1  0.97440000  0.80080000  0.34100000  1.0
  C  C551  1  0.99080000  0.78720000  0.30100000  1.0
  C  C552  1  0.78510000  0.29950000  0.08310000  1.0
  C  C553  1  0.52679000  0.23846000  0.98916000  1.0
  C  C554  1  0.57790000  0.57010000  0.24110000  1.0
  C  C555  1  0.77250000  0.26620000  0.10900000  1.0
  C  C556  1  0.67690000  0.24450000  0.10710000  1.0
  C  C557  1  0.59529000  0.25617000  0.07925000  1.0
  C  C558  1  0.48680000  0.23201000  0.07839000  1.0
  C  C559  1  0.61235000  0.28973000  0.05377000  1.0
  C  C560  1  0.52950000  0.30666000  0.02374000  1.0
  C  C561  1  0.82820000  0.59480000  0.19460000  1.0
  C  C562  1  0.48040000  0.28406000  0.99714000  1.0
  C  C563  1  0.39640000  0.30511000  0.97389000  1.0
  C  C564  1  0.36520000  0.34710000  0.97650000  1.0
  C  C565  1  0.42590000  0.36810000  0.00050000  1.0
  C  C566  1  0.74940000  0.32190000  0.95470000  1.0
  C  C567  1  0.72810000  0.31520000  0.91520000  1.0
  C  C568  1  0.68250000  0.34880000  0.89340000  1.0
  C  C569  1  0.66600000  0.38830000  0.90910000  1.0
  C  C570  1  0.69970000  0.39280000  0.94740000  1.0
  C  C571  1  0.68910000  0.43280000  0.96820000  1.0
  C  C572  1  0.73320000  0.46712000  0.94948000  1.0
  C  C573  1  0.71120000  0.50299000  0.97221000  1.0
  C  C574  1  0.65035000  0.50366000  0.01224000  1.0
  C  C575  1  0.61650000  0.46820000  0.03000000  1.0
  C  C576  1  0.81640000  0.46512000  0.90788000  1.0
  C  C577  1  0.60030000  0.42340000  0.88560000  1.0
  C  C578  1  0.92780000  0.40360000  0.01920000  1.0
  C  C579  1  0.99280000  0.43490000  0.02250000  1.0
  C  C580  1  0.95680000  0.45910000  0.05730000  1.0
  C  C581  1  0.85948000  0.45154000  0.08830000  1.0
  C  C582  1  0.80620000  0.41631000  0.08369000  1.0
  C  C583  1  0.71089000  0.40002000  0.11460000  1.0
  C  C584  1  0.71546000  0.39456000  0.15612000  1.0
  C  C585  1  0.62618000  0.37587000  0.18017000  1.0
  C  C586  1  0.52976000  0.36370000  0.16318000  1.0
  C  C587  1  0.53082000  0.36998000  0.12178000  1.0
  C  C588  1  0.81860000  0.40802000  0.17598000  1.0
  C  C589  1  0.81333000  0.48179000  0.12275000  1.0
  C  C590  1  0.65650000  0.61630000  0.34370000  1.0
  C  C591  1  0.61390000  0.58340000  0.34840000  1.0
  C  C592  1  0.60440000  0.56940000  0.31200000  1.0
  C  C593  1  0.61600000  0.59080000  0.27460000  1.0
  C  C594  1  0.64960000  0.62850000  0.27030000  1.0
  C  C595  1  0.65360000  0.65290000  0.23250000  1.0
  C  C596  1  0.72670000  0.63560000  0.19920000  1.0
  C  C597  1  0.70110000  0.66000000  0.16060000  1.0
  C  C598  1  0.61620000  0.69920000  0.15900000  1.0
  C  C599  1  0.57900000  0.71280000  0.19900000  1.0
  N  N600  1  0.23873000  0.05628000  0.18886000  1.0
  N  N601  1  0.46840000  0.02379000  0.15181000  1.0
  N  N602  1  0.29459000  0.97093000  0.14049000  1.0
  N  N603  1  0.35572000  0.00866000  0.06670000  1.0
  N  N604  1  0.11601000  0.04865000  0.10553000  1.0
  N  N605  1  0.28259000  0.09744000  0.11278000  1.0
  N  N606  1  0.17790000  0.23440000  0.80740000  1.0
  N  N607  1  0.00870000  0.31210000  0.85630000  1.0
  N  N608  1  0.98387000  0.44372000  0.31114000  1.0
  N  N609  1  0.14400000  0.47621000  0.34819000  1.0
  N  N610  1  0.90601000  0.52907000  0.35951000  1.0
  N  N611  1  0.93108000  0.49134000  0.43330000  1.0
  N  N612  1  0.77019000  0.45135000  0.39447000  1.0
  N  N613  1  0.99281000  0.40256000  0.38722000  1.0
  N  N614  1  0.71970000  0.26560000  0.69260000  1.0
  N  N615  1  0.67710000  0.18790000  0.64370000  1.0
  N  N616  1  0.42759000  0.81114000  0.55628000  1.0
  N  N617  1  0.62021000  0.84819000  0.52379000  1.0
  N  N618  1  0.43508000  0.85951000  0.47093000  1.0
  N  N619  1  0.42242000  0.93330000  0.50866000  1.0
  N  N620  1  0.22154000  0.89447000  0.54865000  1.0
  N  N621  1  0.39537000  0.88722000  0.59744000  1.0
  N  N622  1  0.98530000  0.19260000  0.73440000  1.0
  N  N623  1  0.86500000  0.14370000  0.81210000  1.0
  N  N624  1  0.29501000  0.68886000  0.94372000  1.0
  N  N625  1  0.49219000  0.65181000  0.97621000  1.0
  N  N626  1  0.26552000  0.64049000  0.02907000  1.0
  N  N627  1  0.36438000  0.56670000  0.99134000  1.0
  N  N628  1  0.16466000  0.60553000  0.95135000  1.0
  N  N629  1  0.38003000  0.61278000  0.90256000  1.0
  N  N630  1  0.41230000  0.30740000  0.76560000  1.0
  N  N631  1  0.32080000  0.35630000  0.68790000  1.0
  N  N632  1  0.76127000  0.94372000  0.81114000  1.0
  N  N633  1  0.53160000  0.97621000  0.84819000  1.0
  N  N634  1  0.70541000  0.02907000  0.85951000  1.0
  N  N635  1  0.64428000  0.99134000  0.93330000  1.0
  N  N636  1  0.88399000  0.95135000  0.89447000  1.0
  N  N637  1  0.71741000  0.90256000  0.88722000  1.0
  N  N638  1  0.82210000  0.76560000  0.19260000  1.0
  N  N639  1  0.99130000  0.68790000  0.14370000  1.0
  N  N640  1  0.01613000  0.55628000  0.68886000  1.0
  N  N641  1  0.85600000  0.52379000  0.65181000  1.0
  N  N642  1  0.09399000  0.47093000  0.64049000  1.0
  N  N643  1  0.06892000  0.50866000  0.56670000  1.0
  N  N644  1  0.22981000  0.54865000  0.60553000  1.0
  N  N645  1  0.00719000  0.59744000  0.61278000  1.0
  N  N646  1  0.28030000  0.73440000  0.30740000  1.0
  N  N647  1  0.32290000  0.81210000  0.35630000  1.0
  N  N648  1  0.57241000  0.18886000  0.44372000  1.0
  N  N649  1  0.37979000  0.15181000  0.47621000  1.0
  N  N650  1  0.56492000  0.14049000  0.52907000  1.0
  N  N651  1  0.57758000  0.06670000  0.49134000  1.0
  N  N652  1  0.77846000  0.10553000  0.45135000  1.0
  N  N653  1  0.60463000  0.11278000  0.40256000  1.0
  N  N654  1  0.01470000  0.80740000  0.26560000  1.0
  N  N655  1  0.13500000  0.85630000  0.18790000  1.0
  N  N656  1  0.70499000  0.31114000  0.05628000  1.0
  N  N657  1  0.50781000  0.34819000  0.02379000  1.0
  N  N658  1  0.73448000  0.35951000  0.97093000  1.0
  N  N659  1  0.63562000  0.43330000  0.00866000  1.0
  N  N660  1  0.83534000  0.39447000  0.04865000  1.0
  N  N661  1  0.61997000  0.38722000  0.09744000  1.0
  N  N662  1  0.58770000  0.69260000  0.23440000  1.0
  N  N663  1  0.67920000  0.64370000  0.31210000  1.0
  O  O664  1  0.40615000  0.07796000  0.30634000  1.0
  O  O665  1  0.54196000  0.07820000  0.24768000  1.0
  O  O666  1  0.36670000  0.99271000  0.27389000  1.0
  O  O667  1  0.56740000  0.97802000  0.28198000  1.0
  O  O668  1  0.52513000  0.84634000  0.07820000  1.0
  O  O669  1  0.57807000  0.90374000  0.04992000  1.0
  O  O670  1  0.33942000  0.87856000  0.01300000  1.0
  O  O671  1  0.17219000  0.90419000  0.05663000  1.0
  O  O672  1  0.00613000  0.21011000  0.07343000  1.0
  O  O673  1  0.91276000  0.15705000  0.09963000  1.0
  O  O674  1  0.16075000  0.13824000  0.01486000  1.0
  O  O675  1  0.97858000  0.13127000  0.99677000  1.0
  O  O676  1  0.97950000  0.16270000  0.91770000  1.0
  O  O677  1  0.88830000  0.22460000  0.91500000  1.0
  O  O678  1  0.12926000  0.22730000  0.96378000  1.0
  O  O679  1  0.29261000  0.22641000  0.91517000  1.0
  O  O680  1  0.29045000  0.42204000  0.19366000  1.0
  O  O681  1  0.36784000  0.42180000  0.25232000  1.0
  O  O682  1  0.13330000  0.50729000  0.22611000  1.0
  O  O683  1  0.32740000  0.52198000  0.21802000  1.0
  O  O684  1  0.94967000  0.65366000  0.42180000  1.0
  O  O685  1  0.03173000  0.59626000  0.45008000  1.0
  O  O686  1  0.73098000  0.62144000  0.48700000  1.0
  O  O687  1  0.63301000  0.59581000  0.44337000  1.0
  O  O688  1  0.78967000  0.28989000  0.42657000  1.0
  O  O689  1  0.66944000  0.34295000  0.40037000  1.0
  O  O690  1  0.81385000  0.36176000  0.48514000  1.0
  O  O691  1  0.60662000  0.36873000  0.50323000  1.0
  O  O692  1  0.55990000  0.33730000  0.58230000  1.0
  O  O693  1  0.52790000  0.27540000  0.58500000  1.0
  O  O694  1  0.82034000  0.27270000  0.53622000  1.0
  O  O695  1  0.93419000  0.27359000  0.58483000  1.0
  O  O696  1  0.71249000  0.69366000  0.57796000  1.0
  O  O697  1  0.78964000  0.75232000  0.57820000  1.0
  O  O698  1  0.64059000  0.72611000  0.49271000  1.0
  O  O699  1  0.84938000  0.71802000  0.47802000  1.0
  O  O700  1  0.60333000  0.92180000  0.34634000  1.0
  O  O701  1  0.62799000  0.95008000  0.40374000  1.0
  O  O702  1  0.35242000  0.98700000  0.37856000  1.0
  O  O703  1  0.22882000  0.94337000  0.40419000  1.0
  O  O704  1  0.07956000  0.92657000  0.71011000  1.0
  O  O705  1  0.01239000  0.90037000  0.65705000  1.0
  O  O706  1  0.17561000  0.98514000  0.63824000  1.0
  O  O707  1  0.97535000  0.00323000  0.63127000  1.0
  O  O708  1  0.89720000  0.08230000  0.66270000  1.0
  O  O709  1  0.80330000  0.08500000  0.72460000  1.0
  O  O710  1  0.09304000  0.03622000  0.72730000  1.0
  O  O711  1  0.20778000  0.08483000  0.72641000  1.0
  O  O712  1  0.48411000  0.80634000  0.92204000  1.0
  O  O713  1  0.62016000  0.74768000  0.92180000  1.0
  O  O714  1  0.35941000  0.77389000  0.00729000  1.0
  O  O715  1  0.54542000  0.78198000  0.02198000  1.0
  O  O716  1  0.37147000  0.57820000  0.15366000  1.0
  O  O717  1  0.48181000  0.54992000  0.09626000  1.0
  O  O718  1  0.21798000  0.51300000  0.12144000  1.0
  O  O719  1  0.07638000  0.55663000  0.09581000  1.0
  O  O720  1  0.21624000  0.57343000  0.78989000  1.0
  O  O721  1  0.06981000  0.59963000  0.84295000  1.0
  O  O722  1  0.29899000  0.51486000  0.86176000  1.0
  O  O723  1  0.10985000  0.49677000  0.86873000  1.0
  O  O724  1  0.14220000  0.41770000  0.83730000  1.0
  O  O725  1  0.11290000  0.41500000  0.77540000  1.0
  O  O726  1  0.35656000  0.46378000  0.77270000  1.0
  O  O727  1  0.51902000  0.41517000  0.77359000  1.0
  O  O728  1  0.59385000  0.92204000  0.69366000  1.0
  O  O729  1  0.45804000  0.92180000  0.75232000  1.0
  O  O730  1  0.63330000  0.00729000  0.72611000  1.0
  O  O731  1  0.43260000  0.02198000  0.71802000  1.0
  O  O732  1  0.47487000  0.15366000  0.92180000  1.0
  O  O733  1  0.42193000  0.09626000  0.95008000  1.0
  O  O734  1  0.66058000  0.12144000  0.98700000  1.0
  O  O735  1  0.82781000  0.09581000  0.94337000  1.0
  O  O736  1  0.99387000  0.78989000  0.92657000  1.0
  O  O737  1  0.08724000  0.84295000  0.90037000  1.0
  O  O738  1  0.83925000  0.86176000  0.98514000  1.0
  O  O739  1  0.02142000  0.86873000  0.00323000  1.0
  O  O740  1  0.02050000  0.83730000  0.08230000  1.0
  O  O741  1  0.11170000  0.77540000  0.08500000  1.0
  O  O742  1  0.87074000  0.77270000  0.03622000  1.0
  O  O743  1  0.70739000  0.77359000  0.08483000  1.0
  O  O744  1  0.70955000  0.57796000  0.80634000  1.0
  O  O745  1  0.63216000  0.57820000  0.74768000  1.0
  O  O746  1  0.86670000  0.49271000  0.77389000  1.0
  O  O747  1  0.67260000  0.47802000  0.78198000  1.0
  O  O748  1  0.05033000  0.34634000  0.57820000  1.0
  O  O749  1  0.96827000  0.40374000  0.54992000  1.0
  O  O750  1  0.26902000  0.37856000  0.51300000  1.0
  O  O751  1  0.36699000  0.40419000  0.55663000  1.0
  O  O752  1  0.21033000  0.71011000  0.57343000  1.0
  O  O753  1  0.33056000  0.65705000  0.59963000  1.0
  O  O754  1  0.18615000  0.63824000  0.51486000  1.0
  O  O755  1  0.39338000  0.63127000  0.49677000  1.0
  O  O756  1  0.44010000  0.66270000  0.41770000  1.0
  O  O757  1  0.47210000  0.72460000  0.41500000  1.0
  O  O758  1  0.17966000  0.72730000  0.46378000  1.0
  O  O759  1  0.06581000  0.72641000  0.41517000  1.0
  O  O760  1  0.28751000  0.30634000  0.42204000  1.0
  O  O761  1  0.21036000  0.24768000  0.42180000  1.0
  O  O762  1  0.35941000  0.27389000  0.50729000  1.0
  O  O763  1  0.15062000  0.28198000  0.52198000  1.0
  O  O764  1  0.39667000  0.07820000  0.65366000  1.0
  O  O765  1  0.37201000  0.04992000  0.59626000  1.0
  O  O766  1  0.64758000  0.01300000  0.62144000  1.0
  O  O767  1  0.77118000  0.05663000  0.59581000  1.0
  O  O768  1  0.92044000  0.07343000  0.28989000  1.0
  O  O769  1  0.98761000  0.09963000  0.34295000  1.0
  O  O770  1  0.82439000  0.01486000  0.36176000  1.0
  O  O771  1  0.02465000  0.99677000  0.36873000  1.0
  O  O772  1  0.10280000  0.91770000  0.33730000  1.0
  O  O773  1  0.19670000  0.91500000  0.27540000  1.0
  O  O774  1  0.90696000  0.96378000  0.27270000  1.0
  O  O775  1  0.79222000  0.91517000  0.27359000  1.0
  O  O776  1  0.51589000  0.19366000  0.07796000  1.0
  O  O777  1  0.37984000  0.25232000  0.07820000  1.0
  O  O778  1  0.64059000  0.22611000  0.99271000  1.0
  O  O779  1  0.45458000  0.21802000  0.97802000  1.0
  O  O780  1  0.62853000  0.42180000  0.84634000  1.0
  O  O781  1  0.51819000  0.45008000  0.90374000  1.0
  O  O782  1  0.78202000  0.48700000  0.87856000  1.0
  O  O783  1  0.92362000  0.44337000  0.90419000  1.0
  O  O784  1  0.78376000  0.42657000  0.21011000  1.0
  O  O785  1  0.93019000  0.40037000  0.15705000  1.0
  O  O786  1  0.70101000  0.48514000  0.13824000  1.0
  O  O787  1  0.89015000  0.50323000  0.13127000  1.0
  O  O788  1  0.85780000  0.58230000  0.16270000  1.0
  O  O789  1  0.88710000  0.58500000  0.22460000  1.0
  O  O790  1  0.64344000  0.53622000  0.22730000  1.0
  O  O791  1  0.48098000  0.58483000  0.22641000  1.0
