# generated using pymatgen
data_La4Ag8H111Pd6C62S12Br(N3O7)4
_symmetry_space_group_name_H-M   'P 1'
_cell_length_a   24.84460000
_cell_length_b   24.84460000
_cell_length_c   47.24090000
_cell_angle_alpha   90.00000000
_cell_angle_beta   90.00000000
_cell_angle_gamma   90.00000000
_symmetry_Int_Tables_number   1
_chemical_formula_structural   La4Ag8H111Pd6C62S12Br(N3O7)4
_chemical_formula_sum   'La32 Ag64 H888 Pd48 C496 S96 Br8 N96 O224'
_cell_volume   29159.64153505
_cell_formula_units_Z   8
loop_
 _symmetry_equiv_pos_site_id
 _symmetry_equiv_pos_as_xyz
  1  'x, y, z'
loop_
 _atom_site_type_symbol
 _atom_site_label
 _atom_site_symmetry_multiplicity
 _atom_site_fract_x
 _atom_site_fract_y
 _atom_site_fract_z
 _atom_site_occupancy
  La  La0  1  0.92337000  0.37738000  0.11276000  1.0
  La  La1  1  0.84061000  0.77451000  0.48970000  1.0
  La  La2  1  0.89085000  0.04752000  0.27127000  1.0
  La  La3  1  0.93322000  0.03006000  0.29173000  1.0
  La  La4  1  0.07663000  0.62262000  0.61276000  1.0
  La  La5  1  0.15939000  0.22549000  0.98970000  1.0
  La  La6  1  0.10915000  0.95248000  0.77127000  1.0
  La  La7  1  0.06678000  0.96994000  0.79173000  1.0
  La  La8  1  0.12262000  0.42337000  0.36276000  1.0
  La  La9  1  0.72549000  0.34061000  0.73970000  1.0
  La  La10  1  0.45248000  0.39085000  0.52127000  1.0
  La  La11  1  0.46994000  0.43322000  0.54173000  1.0
  La  La12  1  0.87738000  0.57663000  0.86276000  1.0
  La  La13  1  0.27451000  0.65939000  0.23970000  1.0
  La  La14  1  0.54752000  0.60915000  0.02127000  1.0
  La  La15  1  0.53006000  0.56678000  0.04173000  1.0
  La  La16  1  0.57663000  0.87738000  0.13724000  1.0
  La  La17  1  0.65939000  0.27451000  0.76030000  1.0
  La  La18  1  0.60915000  0.54752000  0.97873000  1.0
  La  La19  1  0.56678000  0.53006000  0.95827000  1.0
  La  La20  1  0.42337000  0.12262000  0.63724000  1.0
  La  La21  1  0.34061000  0.72549000  0.26030000  1.0
  La  La22  1  0.39085000  0.45248000  0.47873000  1.0
  La  La23  1  0.43322000  0.46994000  0.45827000  1.0
  La  La24  1  0.37738000  0.92337000  0.88724000  1.0
  La  La25  1  0.77451000  0.84061000  0.51030000  1.0
  La  La26  1  0.04752000  0.89085000  0.72873000  1.0
  La  La27  1  0.03006000  0.93322000  0.70827000  1.0
  La  La28  1  0.62262000  0.07663000  0.38724000  1.0
  La  La29  1  0.22549000  0.15939000  0.01030000  1.0
  La  La30  1  0.95248000  0.10915000  0.22873000  1.0
  La  La31  1  0.96994000  0.06678000  0.20827000  1.0
  Ag  Ag32  1  0.71720000  0.65550000  0.22789000  1.0
  Ag  Ag33  1  0.85082000  0.60959000  0.24873000  1.0
  Ag  Ag34  1  0.81454000  0.49703000  0.28683000  1.0
  Ag  Ag35  1  0.67537000  0.55643000  0.27239000  1.0
  Ag  Ag36  1  0.72863000  0.73580000  0.28925000  1.0
  Ag  Ag37  1  0.87506000  0.71523000  0.31008000  1.0
  Ag  Ag38  1  0.80243000  0.59222000  0.34406000  1.0
  Ag  Ag39  1  0.65343000  0.63979000  0.34365000  1.0
  Ag  Ag40  1  0.28280000  0.34450000  0.72789000  1.0
  Ag  Ag41  1  0.14918000  0.39041000  0.74873000  1.0
  Ag  Ag42  1  0.18546000  0.50297000  0.78683000  1.0
  Ag  Ag43  1  0.32463000  0.44357000  0.77239000  1.0
  Ag  Ag44  1  0.27137000  0.26420000  0.78925000  1.0
  Ag  Ag45  1  0.12494000  0.28477000  0.81008000  1.0
  Ag  Ag46  1  0.19757000  0.40778000  0.84406000  1.0
  Ag  Ag47  1  0.34657000  0.36021000  0.84365000  1.0
  Ag  Ag48  1  0.84450000  0.21720000  0.47789000  1.0
  Ag  Ag49  1  0.89041000  0.35082000  0.49873000  1.0
  Ag  Ag50  1  0.00297000  0.31454000  0.53683000  1.0
  Ag  Ag51  1  0.94357000  0.17537000  0.52239000  1.0
  Ag  Ag52  1  0.76420000  0.22863000  0.53925000  1.0
  Ag  Ag53  1  0.78477000  0.37506000  0.56008000  1.0
  Ag  Ag54  1  0.90778000  0.30243000  0.59406000  1.0
  Ag  Ag55  1  0.86021000  0.15343000  0.59365000  1.0
  Ag  Ag56  1  0.15550000  0.78280000  0.97789000  1.0
  Ag  Ag57  1  0.10959000  0.64918000  0.99873000  1.0
  Ag  Ag58  1  0.99703000  0.68546000  0.03683000  1.0
  Ag  Ag59  1  0.05643000  0.82463000  0.02239000  1.0
  Ag  Ag60  1  0.23580000  0.77137000  0.03925000  1.0
  Ag  Ag61  1  0.21523000  0.62494000  0.06008000  1.0
  Ag  Ag62  1  0.09222000  0.69757000  0.09406000  1.0
  Ag  Ag63  1  0.13979000  0.84657000  0.09365000  1.0
  Ag  Ag64  1  0.78280000  0.15550000  0.02211000  1.0
  Ag  Ag65  1  0.64918000  0.10959000  0.00127000  1.0
  Ag  Ag66  1  0.68546000  0.99703000  0.96317000  1.0
  Ag  Ag67  1  0.82463000  0.05643000  0.97761000  1.0
  Ag  Ag68  1  0.77137000  0.23580000  0.96075000  1.0
  Ag  Ag69  1  0.62494000  0.21523000  0.93992000  1.0
  Ag  Ag70  1  0.69757000  0.09222000  0.90594000  1.0
  Ag  Ag71  1  0.84657000  0.13979000  0.90635000  1.0
  Ag  Ag72  1  0.21720000  0.84450000  0.52211000  1.0
  Ag  Ag73  1  0.35082000  0.89041000  0.50127000  1.0
  Ag  Ag74  1  0.31454000  0.00297000  0.46317000  1.0
  Ag  Ag75  1  0.17537000  0.94357000  0.47761000  1.0
  Ag  Ag76  1  0.22863000  0.76420000  0.46075000  1.0
  Ag  Ag77  1  0.37506000  0.78477000  0.43992000  1.0
  Ag  Ag78  1  0.30243000  0.90778000  0.40594000  1.0
  Ag  Ag79  1  0.15343000  0.86021000  0.40635000  1.0
  Ag  Ag80  1  0.65550000  0.71720000  0.77211000  1.0
  Ag  Ag81  1  0.60959000  0.85082000  0.75127000  1.0
  Ag  Ag82  1  0.49703000  0.81454000  0.71317000  1.0
  Ag  Ag83  1  0.55643000  0.67537000  0.72761000  1.0
  Ag  Ag84  1  0.73580000  0.72863000  0.71075000  1.0
  Ag  Ag85  1  0.71523000  0.87506000  0.68992000  1.0
  Ag  Ag86  1  0.59222000  0.80243000  0.65594000  1.0
  Ag  Ag87  1  0.63979000  0.65343000  0.65635000  1.0
  Ag  Ag88  1  0.34450000  0.28280000  0.27211000  1.0
  Ag  Ag89  1  0.39041000  0.14918000  0.25127000  1.0
  Ag  Ag90  1  0.50297000  0.18546000  0.21317000  1.0
  Ag  Ag91  1  0.44357000  0.32463000  0.22761000  1.0
  Ag  Ag92  1  0.26420000  0.27137000  0.21075000  1.0
  Ag  Ag93  1  0.28477000  0.12494000  0.18992000  1.0
  Ag  Ag94  1  0.40778000  0.19757000  0.15594000  1.0
  Ag  Ag95  1  0.36021000  0.34657000  0.15635000  1.0
  H  H96  1  0.72290000  0.47550000  0.15760000  1.0
  H  H97  1  0.68680000  0.45020000  0.17880000  1.0
  H  H98  1  0.78940000  0.40420000  0.18890000  1.0
  H  H99  1  0.81870000  0.44410000  0.17140000  1.0
  H  H100  1  0.82560000  0.81200000  0.17900000  1.0
  H  H101  1  0.87690000  0.78120000  0.17950000  1.0
  H  H102  1  0.90080000  0.85160000  0.22630000  1.0
  H  H103  1  0.84560000  0.87490000  0.22700000  1.0
  H  H104  1  0.04470000  0.60890000  0.32120000  1.0
  H  H105  1  0.04630000  0.58250000  0.29300000  1.0
  H  H106  1  0.02130000  0.50100000  0.32800000  1.0
  H  H107  1  0.99400000  0.52170000  0.35370000  1.0
  H  H108  1  0.68050000  0.37720000  0.35330000  1.0
  H  H109  1  0.63590000  0.39380000  0.33430000  1.0
  H  H110  1  0.62910000  0.45230000  0.38770000  1.0
  H  H111  1  0.68580000  0.44390000  0.39680000  1.0
  H  H112  1  0.47860000  0.68980000  0.29000000  1.0
  H  H113  1  0.47870000  0.64350000  0.27010000  1.0
  H  H114  1  0.51120000  0.72290000  0.23090000  1.0
  H  H115  1  0.52660000  0.76830000  0.24980000  1.0
  H  H116  1  0.70930000  0.78890000  0.40950000  1.0
  H  H117  1  0.72220000  0.83070000  0.38830000  1.0
  H  H118  1  0.82170000  0.80520000  0.40240000  1.0
  H  H119  1  0.80890000  0.75640000  0.41910000  1.0
  H  H120  1  0.68120000  0.55640000  0.15990000  1.0
  H  H121  1  0.58920000  0.51930000  0.22710000  1.0
  H  H122  1  0.62510000  0.47170000  0.21430000  1.0
  H  H123  1  0.57500000  0.49460000  0.19670000  1.0
  H  H124  1  0.63250000  0.62110000  0.18150000  1.0
  H  H125  1  0.59420000  0.61050000  0.20820000  1.0
  H  H126  1  0.57770000  0.58810000  0.17760000  1.0
  H  H127  1  0.84820000  0.40340000  0.22290000  1.0
  H  H128  1  0.91480000  0.54670000  0.19750000  1.0
  H  H129  1  0.86680000  0.52140000  0.17920000  1.0
  H  H130  1  0.92500000  0.49380000  0.17900000  1.0
  H  H131  1  0.94030000  0.50700000  0.24450000  1.0
  H  H132  1  0.95570000  0.44890000  0.23230000  1.0
  H  H133  1  0.91080000  0.45440000  0.25640000  1.0
  H  H134  1  0.77440000  0.73870000  0.17010000  1.0
  H  H135  1  0.91140000  0.70190000  0.18890000  1.0
  H  H136  1  0.90380000  0.66800000  0.16030000  1.0
  H  H137  1  0.90170000  0.63830000  0.19040000  1.0
  H  H138  1  0.81400000  0.60260000  0.17760000  1.0
  H  H139  1  0.80740000  0.63580000  0.14880000  1.0
  H  H140  1  0.76300000  0.64100000  0.17320000  1.0
  H  H141  1  0.90700000  0.84320000  0.27410000  1.0
  H  H142  1  0.76490000  0.86640000  0.25150000  1.0
  H  H143  1  0.76810000  0.90950000  0.27660000  1.0
  H  H144  1  0.73850000  0.85310000  0.28160000  1.0
  H  H145  1  0.79560000  0.84130000  0.32080000  1.0
  H  H146  1  0.83530000  0.89100000  0.31550000  1.0
  H  H147  1  0.85920000  0.83150000  0.31890000  1.0
  H  H148  1  0.01380000  0.68710000  0.30460000  1.0
  H  H149  1  0.00270000  0.58320000  0.25290000  1.0
  H  H150  1  0.02470000  0.62980000  0.23260000  1.0
  H  H151  1  0.96230000  0.61380000  0.23190000  1.0
  H  H152  1  0.95820000  0.73900000  0.26700000  1.0
  H  H153  1  0.93680000  0.70700000  0.23990000  1.0
  H  H154  1  0.99830000  0.72570000  0.24150000  1.0
  H  H155  1  0.95320000  0.44470000  0.31780000  1.0
  H  H156  1  0.86640000  0.50580000  0.38590000  1.0
  H  H157  1  0.92540000  0.52900000  0.38000000  1.0
  H  H158  1  0.91820000  0.46880000  0.39150000  1.0
  H  H159  1  0.82270000  0.45070000  0.35540000  1.0
  H  H160  1  0.86600000  0.40320000  0.35780000  1.0
  H  H161  1  0.84880000  0.42560000  0.32740000  1.0
  H  H162  1  0.74150000  0.37140000  0.31700000  1.0
  H  H163  1  0.61270000  0.42770000  0.29720000  1.0
  H  H164  1  0.61830000  0.38480000  0.27210000  1.0
  H  H165  1  0.62820000  0.44740000  0.26600000  1.0
  H  H166  1  0.71600000  0.42430000  0.24680000  1.0
  H  H167  1  0.71450000  0.36190000  0.25520000  1.0
  H  H168  1  0.76320000  0.39900000  0.26560000  1.0
  H  H169  1  0.62770000  0.53680000  0.39810000  1.0
  H  H170  1  0.76240000  0.48460000  0.39990000  1.0
  H  H171  1  0.76390000  0.51880000  0.42860000  1.0
  H  H172  1  0.79400000  0.54070000  0.40090000  1.0
  H  H173  1  0.73720000  0.62580000  0.40650000  1.0
  H  H174  1  0.69890000  0.60280000  0.43100000  1.0
  H  H175  1  0.67340000  0.62430000  0.40200000  1.0
  H  H176  1  0.51290000  0.64080000  0.32700000  1.0
  H  H177  1  0.55760000  0.51700000  0.27500000  1.0
  H  H178  1  0.52590000  0.56620000  0.26090000  1.0
  H  H179  1  0.49470000  0.52470000  0.28100000  1.0
  H  H180  1  0.57790000  0.51470000  0.32610000  1.0
  H  H181  1  0.51740000  0.52600000  0.33610000  1.0
  H  H182  1  0.56490000  0.56530000  0.34590000  1.0
  H  H183  1  0.58820000  0.72510000  0.20690000  1.0
  H  H184  1  0.59660000  0.81480000  0.26490000  1.0
  H  H185  1  0.61560000  0.85320000  0.23970000  1.0
  H  H186  1  0.65890000  0.82950000  0.26140000  1.0
  H  H187  1  0.67660000  0.74780000  0.20050000  1.0
  H  H188  1  0.70850000  0.78800000  0.22090000  1.0
  H  H189  1  0.66470000  0.81110000  0.19930000  1.0
  H  H190  1  0.63680000  0.76090000  0.38790000  1.0
  H  H191  1  0.67890000  0.83620000  0.31400000  1.0
  H  H192  1  0.71370000  0.84820000  0.34170000  1.0
  H  H193  1  0.65370000  0.87110000  0.33920000  1.0
  H  H194  1  0.60170000  0.77000000  0.31520000  1.0
  H  H195  1  0.57310000  0.80320000  0.34010000  1.0
  H  H196  1  0.58480000  0.74030000  0.34390000  1.0
  H  H197  1  0.89440000  0.76580000  0.37930000  1.0
  H  H198  1  0.85490000  0.61710000  0.40250000  1.0
  H  H199  1  0.82020000  0.66610000  0.41490000  1.0
  H  H200  1  0.88100000  0.65730000  0.42520000  1.0
  H  H201  1  0.94550000  0.69770000  0.35930000  1.0
  H  H202  1  0.93540000  0.63600000  0.36740000  1.0
  H  H203  1  0.96180000  0.67600000  0.39000000  1.0
  H  H204  1  0.79770000  0.45350000  0.03970000  1.0
  H  H205  1  0.84420000  0.42940000  0.01990000  1.0
  H  H206  1  0.84790000  0.49020000  0.03080000  1.0
  H  H207  1  0.27710000  0.52450000  0.65760000  1.0
  H  H208  1  0.31320000  0.54980000  0.67880000  1.0
  H  H209  1  0.21060000  0.59580000  0.68890000  1.0
  H  H210  1  0.18130000  0.55590000  0.67140000  1.0
  H  H211  1  0.17440000  0.18800000  0.67900000  1.0
  H  H212  1  0.12310000  0.21880000  0.67950000  1.0
  H  H213  1  0.09920000  0.14840000  0.72630000  1.0
  H  H214  1  0.15440000  0.12510000  0.72700000  1.0
  H  H215  1  0.95530000  0.39110000  0.82120000  1.0
  H  H216  1  0.95370000  0.41750000  0.79300000  1.0
  H  H217  1  0.97870000  0.49900000  0.82800000  1.0
  H  H218  1  0.00600000  0.47830000  0.85370000  1.0
  H  H219  1  0.31950000  0.62280000  0.85330000  1.0
  H  H220  1  0.36410000  0.60620000  0.83430000  1.0
  H  H221  1  0.37090000  0.54770000  0.88770000  1.0
  H  H222  1  0.31420000  0.55610000  0.89680000  1.0
  H  H223  1  0.52140000  0.31020000  0.79000000  1.0
  H  H224  1  0.52130000  0.35650000  0.77010000  1.0
  H  H225  1  0.48880000  0.27710000  0.73090000  1.0
  H  H226  1  0.47340000  0.23170000  0.74980000  1.0
  H  H227  1  0.29070000  0.21110000  0.90950000  1.0
  H  H228  1  0.27780000  0.16930000  0.88830000  1.0
  H  H229  1  0.17830000  0.19480000  0.90240000  1.0
  H  H230  1  0.19110000  0.24360000  0.91910000  1.0
  H  H231  1  0.31880000  0.44360000  0.65990000  1.0
  H  H232  1  0.41080000  0.48070000  0.72710000  1.0
  H  H233  1  0.37490000  0.52830000  0.71430000  1.0
  H  H234  1  0.42500000  0.50540000  0.69670000  1.0
  H  H235  1  0.36750000  0.37890000  0.68150000  1.0
  H  H236  1  0.40580000  0.38950000  0.70820000  1.0
  H  H237  1  0.42230000  0.41190000  0.67760000  1.0
  H  H238  1  0.15180000  0.59660000  0.72290000  1.0
  H  H239  1  0.08520000  0.45330000  0.69750000  1.0
  H  H240  1  0.13320000  0.47860000  0.67920000  1.0
  H  H241  1  0.07500000  0.50620000  0.67900000  1.0
  H  H242  1  0.05970000  0.49300000  0.74450000  1.0
  H  H243  1  0.04430000  0.55110000  0.73230000  1.0
  H  H244  1  0.08920000  0.54560000  0.75640000  1.0
  H  H245  1  0.22560000  0.26130000  0.67010000  1.0
  H  H246  1  0.08860000  0.29810000  0.68890000  1.0
  H  H247  1  0.09620000  0.33200000  0.66030000  1.0
  H  H248  1  0.09830000  0.36170000  0.69040000  1.0
  H  H249  1  0.18600000  0.39740000  0.67760000  1.0
  H  H250  1  0.19260000  0.36420000  0.64880000  1.0
  H  H251  1  0.23700000  0.35900000  0.67320000  1.0
  H  H252  1  0.09300000  0.15680000  0.77410000  1.0
  H  H253  1  0.23510000  0.13360000  0.75150000  1.0
  H  H254  1  0.23190000  0.09050000  0.77660000  1.0
  H  H255  1  0.26150000  0.14690000  0.78160000  1.0
  H  H256  1  0.20440000  0.15870000  0.82080000  1.0
  H  H257  1  0.16470000  0.10900000  0.81550000  1.0
  H  H258  1  0.14080000  0.16850000  0.81890000  1.0
  H  H259  1  0.98620000  0.31290000  0.80460000  1.0
  H  H260  1  0.99730000  0.41680000  0.75290000  1.0
  H  H261  1  0.97530000  0.37020000  0.73260000  1.0
  H  H262  1  0.03770000  0.38620000  0.73190000  1.0
  H  H263  1  0.04180000  0.26100000  0.76700000  1.0
  H  H264  1  0.06320000  0.29300000  0.73990000  1.0
  H  H265  1  0.00170000  0.27430000  0.74150000  1.0
  H  H266  1  0.04680000  0.55530000  0.81780000  1.0
  H  H267  1  0.13360000  0.49420000  0.88590000  1.0
  H  H268  1  0.07460000  0.47100000  0.88000000  1.0
  H  H269  1  0.08180000  0.53120000  0.89150000  1.0
  H  H270  1  0.17730000  0.54930000  0.85540000  1.0
  H  H271  1  0.13400000  0.59680000  0.85780000  1.0
  H  H272  1  0.15120000  0.57440000  0.82740000  1.0
  H  H273  1  0.25850000  0.62860000  0.81700000  1.0
  H  H274  1  0.38730000  0.57230000  0.79720000  1.0
  H  H275  1  0.38170000  0.61520000  0.77210000  1.0
  H  H276  1  0.37180000  0.55260000  0.76600000  1.0
  H  H277  1  0.28400000  0.57570000  0.74680000  1.0
  H  H278  1  0.28550000  0.63810000  0.75520000  1.0
  H  H279  1  0.23680000  0.60100000  0.76560000  1.0
  H  H280  1  0.37230000  0.46320000  0.89810000  1.0
  H  H281  1  0.23760000  0.51540000  0.89990000  1.0
  H  H282  1  0.23610000  0.48120000  0.92860000  1.0
  H  H283  1  0.20600000  0.45930000  0.90090000  1.0
  H  H284  1  0.26280000  0.37420000  0.90650000  1.0
  H  H285  1  0.30110000  0.39720000  0.93100000  1.0
  H  H286  1  0.32660000  0.37570000  0.90200000  1.0
  H  H287  1  0.48710000  0.35920000  0.82700000  1.0
  H  H288  1  0.44240000  0.48300000  0.77500000  1.0
  H  H289  1  0.47410000  0.43380000  0.76090000  1.0
  H  H290  1  0.50530000  0.47530000  0.78100000  1.0
  H  H291  1  0.42210000  0.48530000  0.82610000  1.0
  H  H292  1  0.48260000  0.47400000  0.83610000  1.0
  H  H293  1  0.43510000  0.43470000  0.84590000  1.0
  H  H294  1  0.41180000  0.27490000  0.70690000  1.0
  H  H295  1  0.40340000  0.18520000  0.76490000  1.0
  H  H296  1  0.38440000  0.14680000  0.73970000  1.0
  H  H297  1  0.34110000  0.17050000  0.76140000  1.0
  H  H298  1  0.32340000  0.25220000  0.70050000  1.0
  H  H299  1  0.29150000  0.21200000  0.72090000  1.0
  H  H300  1  0.33530000  0.18890000  0.69930000  1.0
  H  H301  1  0.36320000  0.23910000  0.88790000  1.0
  H  H302  1  0.32110000  0.16380000  0.81400000  1.0
  H  H303  1  0.28630000  0.15180000  0.84170000  1.0
  H  H304  1  0.34630000  0.12890000  0.83920000  1.0
  H  H305  1  0.39830000  0.23000000  0.81520000  1.0
  H  H306  1  0.42690000  0.19680000  0.84010000  1.0
  H  H307  1  0.41520000  0.25970000  0.84390000  1.0
  H  H308  1  0.10560000  0.23420000  0.87930000  1.0
  H  H309  1  0.14510000  0.38290000  0.90250000  1.0
  H  H310  1  0.17980000  0.33390000  0.91490000  1.0
  H  H311  1  0.11900000  0.34270000  0.92520000  1.0
  H  H312  1  0.05450000  0.30230000  0.85930000  1.0
  H  H313  1  0.06460000  0.36400000  0.86740000  1.0
  H  H314  1  0.03820000  0.32400000  0.89000000  1.0
  H  H315  1  0.20230000  0.54650000  0.53970000  1.0
  H  H316  1  0.15580000  0.57060000  0.51990000  1.0
  H  H317  1  0.15210000  0.50980000  0.53080000  1.0
  H  H318  1  0.02450000  0.22290000  0.40760000  1.0
  H  H319  1  0.04980000  0.18680000  0.42880000  1.0
  H  H320  1  0.09580000  0.28940000  0.43890000  1.0
  H  H321  1  0.05590000  0.31870000  0.42140000  1.0
  H  H322  1  0.68800000  0.32560000  0.42900000  1.0
  H  H323  1  0.71880000  0.37690000  0.42950000  1.0
  H  H324  1  0.64840000  0.40080000  0.47630000  1.0
  H  H325  1  0.62510000  0.34560000  0.47700000  1.0
  H  H326  1  0.89110000  0.54470000  0.57120000  1.0
  H  H327  1  0.91750000  0.54630000  0.54300000  1.0
  H  H328  1  0.99900000  0.52130000  0.57800000  1.0
  H  H329  1  0.97830000  0.49400000  0.60370000  1.0
  H  H330  1  0.12280000  0.18050000  0.60330000  1.0
  H  H331  1  0.10620000  0.13590000  0.58430000  1.0
  H  H332  1  0.04770000  0.12910000  0.63770000  1.0
  H  H333  1  0.05610000  0.18580000  0.64680000  1.0
  H  H334  1  0.81020000  0.97860000  0.54000000  1.0
  H  H335  1  0.85650000  0.97870000  0.52010000  1.0
  H  H336  1  0.77710000  0.01120000  0.48090000  1.0
  H  H337  1  0.73170000  0.02660000  0.49980000  1.0
  H  H338  1  0.71110000  0.20930000  0.65950000  1.0
  H  H339  1  0.66930000  0.22220000  0.63830000  1.0
  H  H340  1  0.69480000  0.32170000  0.65240000  1.0
  H  H341  1  0.74360000  0.30890000  0.66910000  1.0
  H  H342  1  0.94360000  0.18120000  0.40990000  1.0
  H  H343  1  0.98070000  0.08920000  0.47710000  1.0
  H  H344  1  0.02830000  0.12510000  0.46430000  1.0
  H  H345  1  0.00540000  0.07500000  0.44670000  1.0
  H  H346  1  0.87890000  0.13250000  0.43150000  1.0
  H  H347  1  0.88950000  0.09420000  0.45820000  1.0
  H  H348  1  0.91190000  0.07770000  0.42760000  1.0
  H  H349  1  0.09660000  0.34820000  0.47290000  1.0
  H  H350  1  0.95330000  0.41480000  0.44750000  1.0
  H  H351  1  0.97860000  0.36680000  0.42920000  1.0
  H  H352  1  0.00620000  0.42500000  0.42900000  1.0
  H  H353  1  0.99300000  0.44030000  0.49450000  1.0
  H  H354  1  0.05110000  0.45570000  0.48230000  1.0
  H  H355  1  0.04560000  0.41080000  0.50640000  1.0
  H  H356  1  0.76130000  0.27440000  0.42010000  1.0
  H  H357  1  0.79810000  0.41140000  0.43890000  1.0
  H  H358  1  0.83200000  0.40380000  0.41030000  1.0
  H  H359  1  0.86170000  0.40170000  0.44040000  1.0
  H  H360  1  0.89740000  0.31400000  0.42760000  1.0
  H  H361  1  0.86420000  0.30740000  0.39880000  1.0
  H  H362  1  0.85900000  0.26300000  0.42320000  1.0
  H  H363  1  0.65680000  0.40700000  0.52410000  1.0
  H  H364  1  0.63360000  0.26490000  0.50150000  1.0
  H  H365  1  0.59050000  0.26810000  0.52660000  1.0
  H  H366  1  0.64690000  0.23850000  0.53160000  1.0
  H  H367  1  0.65870000  0.29560000  0.57080000  1.0
  H  H368  1  0.60900000  0.33530000  0.56550000  1.0
  H  H369  1  0.66850000  0.35920000  0.56890000  1.0
  H  H370  1  0.81290000  0.51380000  0.55460000  1.0
  H  H371  1  0.91680000  0.50270000  0.50290000  1.0
  H  H372  1  0.87020000  0.52470000  0.48260000  1.0
  H  H373  1  0.88620000  0.46230000  0.48190000  1.0
  H  H374  1  0.76100000  0.45820000  0.51700000  1.0
  H  H375  1  0.79300000  0.43680000  0.48990000  1.0
  H  H376  1  0.77430000  0.49830000  0.49150000  1.0
  H  H377  1  0.05530000  0.45320000  0.56780000  1.0
  H  H378  1  0.99420000  0.36640000  0.63590000  1.0
  H  H379  1  0.97100000  0.42540000  0.63000000  1.0
  H  H380  1  0.03120000  0.41820000  0.64150000  1.0
  H  H381  1  0.04930000  0.32270000  0.60540000  1.0
  H  H382  1  0.09680000  0.36600000  0.60780000  1.0
  H  H383  1  0.07440000  0.34880000  0.57740000  1.0
  H  H384  1  0.12860000  0.24150000  0.56700000  1.0
  H  H385  1  0.07230000  0.11270000  0.54720000  1.0
  H  H386  1  0.11520000  0.11830000  0.52210000  1.0
  H  H387  1  0.05260000  0.12820000  0.51600000  1.0
  H  H388  1  0.07570000  0.21600000  0.49680000  1.0
  H  H389  1  0.13810000  0.21450000  0.50520000  1.0
  H  H390  1  0.10100000  0.26320000  0.51560000  1.0
  H  H391  1  0.96320000  0.12770000  0.64810000  1.0
  H  H392  1  0.01540000  0.26240000  0.64990000  1.0
  H  H393  1  0.98120000  0.26390000  0.67860000  1.0
  H  H394  1  0.95930000  0.29400000  0.65090000  1.0
  H  H395  1  0.87420000  0.23720000  0.65650000  1.0
  H  H396  1  0.89720000  0.19890000  0.68100000  1.0
  H  H397  1  0.87570000  0.17340000  0.65200000  1.0
  H  H398  1  0.85920000  0.01290000  0.57700000  1.0
  H  H399  1  0.98300000  0.05760000  0.52500000  1.0
  H  H400  1  0.93380000  0.02590000  0.51090000  1.0
  H  H401  1  0.97530000  0.99470000  0.53100000  1.0
  H  H402  1  0.98530000  0.07790000  0.57610000  1.0
  H  H403  1  0.97400000  0.01740000  0.58610000  1.0
  H  H404  1  0.93470000  0.06490000  0.59590000  1.0
  H  H405  1  0.77490000  0.08820000  0.45690000  1.0
  H  H406  1  0.68520000  0.09660000  0.51490000  1.0
  H  H407  1  0.64680000  0.11560000  0.48970000  1.0
  H  H408  1  0.67050000  0.15890000  0.51140000  1.0
  H  H409  1  0.75220000  0.17660000  0.45050000  1.0
  H  H410  1  0.71200000  0.20850000  0.47090000  1.0
  H  H411  1  0.68890000  0.16470000  0.44930000  1.0
  H  H412  1  0.73910000  0.13680000  0.63790000  1.0
  H  H413  1  0.66380000  0.17890000  0.56400000  1.0
  H  H414  1  0.65180000  0.21370000  0.59170000  1.0
  H  H415  1  0.62890000  0.15370000  0.58920000  1.0
  H  H416  1  0.73000000  0.10170000  0.56520000  1.0
  H  H417  1  0.69680000  0.07310000  0.59010000  1.0
  H  H418  1  0.75970000  0.08480000  0.59390000  1.0
  H  H419  1  0.73420000  0.39440000  0.62930000  1.0
  H  H420  1  0.88290000  0.35490000  0.65250000  1.0
  H  H421  1  0.83390000  0.32020000  0.66490000  1.0
  H  H422  1  0.84270000  0.38100000  0.67520000  1.0
  H  H423  1  0.80230000  0.44550000  0.60930000  1.0
  H  H424  1  0.86400000  0.43540000  0.61740000  1.0
  H  H425  1  0.82400000  0.46180000  0.64000000  1.0
  H  H426  1  0.04650000  0.29770000  0.28970000  1.0
  H  H427  1  0.07060000  0.34420000  0.26990000  1.0
  H  H428  1  0.00980000  0.34790000  0.28080000  1.0
  H  H429  1  0.97550000  0.77710000  0.90760000  1.0
  H  H430  1  0.95020000  0.81320000  0.92880000  1.0
  H  H431  1  0.90420000  0.71060000  0.93890000  1.0
  H  H432  1  0.94410000  0.68130000  0.92140000  1.0
  H  H433  1  0.31200000  0.67440000  0.92900000  1.0
  H  H434  1  0.28120000  0.62310000  0.92950000  1.0
  H  H435  1  0.35160000  0.59920000  0.97630000  1.0
  H  H436  1  0.37490000  0.65440000  0.97700000  1.0
  H  H437  1  0.10890000  0.45530000  0.07120000  1.0
  H  H438  1  0.08250000  0.45370000  0.04300000  1.0
  H  H439  1  0.00100000  0.47870000  0.07800000  1.0
  H  H440  1  0.02170000  0.50600000  0.10370000  1.0
  H  H441  1  0.87720000  0.81950000  0.10330000  1.0
  H  H442  1  0.89380000  0.86410000  0.08430000  1.0
  H  H443  1  0.95230000  0.87090000  0.13770000  1.0
  H  H444  1  0.94390000  0.81420000  0.14680000  1.0
  H  H445  1  0.18980000  0.02140000  0.04000000  1.0
  H  H446  1  0.14350000  0.02130000  0.02010000  1.0
  H  H447  1  0.22290000  0.98880000  0.98090000  1.0
  H  H448  1  0.26830000  0.97340000  0.99980000  1.0
  H  H449  1  0.28890000  0.79070000  0.15950000  1.0
  H  H450  1  0.33070000  0.77780000  0.13830000  1.0
  H  H451  1  0.30520000  0.67830000  0.15240000  1.0
  H  H452  1  0.25640000  0.69110000  0.16910000  1.0
  H  H453  1  0.05640000  0.81880000  0.90990000  1.0
  H  H454  1  0.01930000  0.91080000  0.97710000  1.0
  H  H455  1  0.97170000  0.87490000  0.96430000  1.0
  H  H456  1  0.99460000  0.92500000  0.94670000  1.0
  H  H457  1  0.12110000  0.86750000  0.93150000  1.0
  H  H458  1  0.11050000  0.90580000  0.95820000  1.0
  H  H459  1  0.08810000  0.92230000  0.92760000  1.0
  H  H460  1  0.90340000  0.65180000  0.97290000  1.0
  H  H461  1  0.04670000  0.58520000  0.94750000  1.0
  H  H462  1  0.02140000  0.63320000  0.92920000  1.0
  H  H463  1  0.99380000  0.57500000  0.92900000  1.0
  H  H464  1  0.00700000  0.55970000  0.99450000  1.0
  H  H465  1  0.94890000  0.54430000  0.98230000  1.0
  H  H466  1  0.95440000  0.58920000  0.00640000  1.0
  H  H467  1  0.23870000  0.72560000  0.92010000  1.0
  H  H468  1  0.20190000  0.58860000  0.93890000  1.0
  H  H469  1  0.16800000  0.59620000  0.91030000  1.0
  H  H470  1  0.13830000  0.59830000  0.94040000  1.0
  H  H471  1  0.10260000  0.68600000  0.92760000  1.0
  H  H472  1  0.13580000  0.69260000  0.89880000  1.0
  H  H473  1  0.14100000  0.73700000  0.92320000  1.0
  H  H474  1  0.34320000  0.59300000  0.02410000  1.0
  H  H475  1  0.36640000  0.73510000  0.00150000  1.0
  H  H476  1  0.40950000  0.73190000  0.02660000  1.0
  H  H477  1  0.35310000  0.76150000  0.03160000  1.0
  H  H478  1  0.34130000  0.70440000  0.07080000  1.0
  H  H479  1  0.39100000  0.66470000  0.06550000  1.0
  H  H480  1  0.33150000  0.64080000  0.06890000  1.0
  H  H481  1  0.18710000  0.48620000  0.05460000  1.0
  H  H482  1  0.08320000  0.49730000  0.00290000  1.0
  H  H483  1  0.12980000  0.47530000  0.98260000  1.0
  H  H484  1  0.11380000  0.53770000  0.98190000  1.0
  H  H485  1  0.23900000  0.54180000  0.01700000  1.0
  H  H486  1  0.20700000  0.56320000  0.98990000  1.0
  H  H487  1  0.22570000  0.50170000  0.99150000  1.0
  H  H488  1  0.94470000  0.54680000  0.06780000  1.0
  H  H489  1  0.00580000  0.63360000  0.13590000  1.0
  H  H490  1  0.02900000  0.57460000  0.13000000  1.0
  H  H491  1  0.96880000  0.58180000  0.14150000  1.0
  H  H492  1  0.95070000  0.67730000  0.10540000  1.0
  H  H493  1  0.90320000  0.63400000  0.10780000  1.0
  H  H494  1  0.92560000  0.65120000  0.07740000  1.0
  H  H495  1  0.87140000  0.75850000  0.06700000  1.0
  H  H496  1  0.92770000  0.88730000  0.04720000  1.0
  H  H497  1  0.88480000  0.88170000  0.02210000  1.0
  H  H498  1  0.94740000  0.87180000  0.01600000  1.0
  H  H499  1  0.92430000  0.78400000  0.99680000  1.0
  H  H500  1  0.86190000  0.78550000  0.00520000  1.0
  H  H501  1  0.89900000  0.73680000  0.01560000  1.0
  H  H502  1  0.03680000  0.87230000  0.14810000  1.0
  H  H503  1  0.98460000  0.73760000  0.14990000  1.0
  H  H504  1  0.01880000  0.73610000  0.17860000  1.0
  H  H505  1  0.04070000  0.70600000  0.15090000  1.0
  H  H506  1  0.12580000  0.76280000  0.15650000  1.0
  H  H507  1  0.10280000  0.80110000  0.18100000  1.0
  H  H508  1  0.12430000  0.82660000  0.15200000  1.0
  H  H509  1  0.14080000  0.98710000  0.07700000  1.0
  H  H510  1  0.01700000  0.94240000  0.02500000  1.0
  H  H511  1  0.06620000  0.97410000  0.01090000  1.0
  H  H512  1  0.02470000  0.00530000  0.03100000  1.0
  H  H513  1  0.01470000  0.92210000  0.07610000  1.0
  H  H514  1  0.02600000  0.98260000  0.08610000  1.0
  H  H515  1  0.06530000  0.93510000  0.09590000  1.0
  H  H516  1  0.22510000  0.91180000  0.95690000  1.0
  H  H517  1  0.31480000  0.90340000  0.01490000  1.0
  H  H518  1  0.35320000  0.88440000  0.98970000  1.0
  H  H519  1  0.32950000  0.84110000  0.01140000  1.0
  H  H520  1  0.24780000  0.82340000  0.95050000  1.0
  H  H521  1  0.28800000  0.79150000  0.97090000  1.0
  H  H522  1  0.31110000  0.83530000  0.94930000  1.0
  H  H523  1  0.26090000  0.86320000  0.13790000  1.0
  H  H524  1  0.33620000  0.82110000  0.06400000  1.0
  H  H525  1  0.34820000  0.78630000  0.09170000  1.0
  H  H526  1  0.37110000  0.84630000  0.08920000  1.0
  H  H527  1  0.27000000  0.89830000  0.06520000  1.0
  H  H528  1  0.30320000  0.92690000  0.09010000  1.0
  H  H529  1  0.24030000  0.91520000  0.09390000  1.0
  H  H530  1  0.26580000  0.60560000  0.12930000  1.0
  H  H531  1  0.11710000  0.64510000  0.15250000  1.0
  H  H532  1  0.16610000  0.67980000  0.16490000  1.0
  H  H533  1  0.15730000  0.61900000  0.17520000  1.0
  H  H534  1  0.19770000  0.55450000  0.10930000  1.0
  H  H535  1  0.13600000  0.56460000  0.11740000  1.0
  H  H536  1  0.17600000  0.53820000  0.14000000  1.0
  H  H537  1  0.95350000  0.70230000  0.78970000  1.0
  H  H538  1  0.92940000  0.65580000  0.76990000  1.0
  H  H539  1  0.99020000  0.65210000  0.78080000  1.0
  H  H540  1  0.77710000  0.97550000  0.09240000  1.0
  H  H541  1  0.81320000  0.95020000  0.07120000  1.0
  H  H542  1  0.71060000  0.90420000  0.06110000  1.0
  H  H543  1  0.68130000  0.94410000  0.07860000  1.0
  H  H544  1  0.67440000  0.31200000  0.07100000  1.0
  H  H545  1  0.62310000  0.28120000  0.07050000  1.0
  H  H546  1  0.59920000  0.35160000  0.02370000  1.0
  H  H547  1  0.65440000  0.37490000  0.02300000  1.0
  H  H548  1  0.45530000  0.10890000  0.92880000  1.0
  H  H549  1  0.45370000  0.08250000  0.95700000  1.0
  H  H550  1  0.47870000  0.00100000  0.92200000  1.0
  H  H551  1  0.50600000  0.02170000  0.89630000  1.0
  H  H552  1  0.81950000  0.87720000  0.89670000  1.0
  H  H553  1  0.86410000  0.89380000  0.91570000  1.0
  H  H554  1  0.87090000  0.95230000  0.86230000  1.0
  H  H555  1  0.81420000  0.94390000  0.85320000  1.0
  H  H556  1  0.02140000  0.18980000  0.96000000  1.0
  H  H557  1  0.02130000  0.14350000  0.97990000  1.0
  H  H558  1  0.98880000  0.22290000  0.01910000  1.0
  H  H559  1  0.97340000  0.26830000  0.00020000  1.0
  H  H560  1  0.79070000  0.28890000  0.84050000  1.0
  H  H561  1  0.77780000  0.33070000  0.86170000  1.0
  H  H562  1  0.67830000  0.30520000  0.84760000  1.0
  H  H563  1  0.69110000  0.25640000  0.83090000  1.0
  H  H564  1  0.81880000  0.05640000  0.09010000  1.0
  H  H565  1  0.91080000  0.01930000  0.02290000  1.0
  H  H566  1  0.87490000  0.97170000  0.03570000  1.0
  H  H567  1  0.92500000  0.99460000  0.05330000  1.0
  H  H568  1  0.86750000  0.12110000  0.06850000  1.0
  H  H569  1  0.90580000  0.11050000  0.04180000  1.0
  H  H570  1  0.92230000  0.08810000  0.07240000  1.0
  H  H571  1  0.65180000  0.90340000  0.02710000  1.0
  H  H572  1  0.58520000  0.04670000  0.05250000  1.0
  H  H573  1  0.63320000  0.02140000  0.07080000  1.0
  H  H574  1  0.57500000  0.99380000  0.07100000  1.0
  H  H575  1  0.55970000  0.00700000  0.00550000  1.0
  H  H576  1  0.54430000  0.94890000  0.01770000  1.0
  H  H577  1  0.58920000  0.95440000  0.99360000  1.0
  H  H578  1  0.72560000  0.23870000  0.07990000  1.0
  H  H579  1  0.58860000  0.20190000  0.06110000  1.0
  H  H580  1  0.59620000  0.16800000  0.08970000  1.0
  H  H581  1  0.59830000  0.13830000  0.05960000  1.0
  H  H582  1  0.68600000  0.10260000  0.07240000  1.0
  H  H583  1  0.69260000  0.13580000  0.10120000  1.0
  H  H584  1  0.73700000  0.14100000  0.07680000  1.0
  H  H585  1  0.59300000  0.34320000  0.97590000  1.0
  H  H586  1  0.73510000  0.36640000  0.99850000  1.0
  H  H587  1  0.73190000  0.40950000  0.97340000  1.0
  H  H588  1  0.76150000  0.35310000  0.96840000  1.0
  H  H589  1  0.70440000  0.34130000  0.92920000  1.0
  H  H590  1  0.66470000  0.39100000  0.93450000  1.0
  H  H591  1  0.64080000  0.33150000  0.93110000  1.0
  H  H592  1  0.48620000  0.18710000  0.94540000  1.0
  H  H593  1  0.49730000  0.08320000  0.99710000  1.0
  H  H594  1  0.47530000  0.12980000  0.01740000  1.0
  H  H595  1  0.53770000  0.11380000  0.01810000  1.0
  H  H596  1  0.54180000  0.23900000  0.98300000  1.0
  H  H597  1  0.56320000  0.20700000  0.01010000  1.0
  H  H598  1  0.50170000  0.22570000  0.00850000  1.0
  H  H599  1  0.54680000  0.94470000  0.93220000  1.0
  H  H600  1  0.63360000  0.00580000  0.86410000  1.0
  H  H601  1  0.57460000  0.02900000  0.87000000  1.0
  H  H602  1  0.58180000  0.96880000  0.85850000  1.0
  H  H603  1  0.67730000  0.95070000  0.89460000  1.0
  H  H604  1  0.63400000  0.90320000  0.89220000  1.0
  H  H605  1  0.65120000  0.92560000  0.92260000  1.0
  H  H606  1  0.75850000  0.87140000  0.93300000  1.0
  H  H607  1  0.88730000  0.92770000  0.95280000  1.0
  H  H608  1  0.88170000  0.88480000  0.97790000  1.0
  H  H609  1  0.87180000  0.94740000  0.98400000  1.0
  H  H610  1  0.78400000  0.92430000  0.00320000  1.0
  H  H611  1  0.78550000  0.86190000  0.99480000  1.0
  H  H612  1  0.73680000  0.89900000  0.98440000  1.0
  H  H613  1  0.87230000  0.03680000  0.85190000  1.0
  H  H614  1  0.73760000  0.98460000  0.85010000  1.0
  H  H615  1  0.73610000  0.01880000  0.82140000  1.0
  H  H616  1  0.70600000  0.04070000  0.84910000  1.0
  H  H617  1  0.76280000  0.12580000  0.84350000  1.0
  H  H618  1  0.80110000  0.10280000  0.81900000  1.0
  H  H619  1  0.82660000  0.12430000  0.84800000  1.0
  H  H620  1  0.98710000  0.14080000  0.92300000  1.0
  H  H621  1  0.94240000  0.01700000  0.97500000  1.0
  H  H622  1  0.97410000  0.06620000  0.98910000  1.0
  H  H623  1  0.00530000  0.02470000  0.96900000  1.0
  H  H624  1  0.92210000  0.01470000  0.92390000  1.0
  H  H625  1  0.98260000  0.02600000  0.91390000  1.0
  H  H626  1  0.93510000  0.06530000  0.90410000  1.0
  H  H627  1  0.91180000  0.22510000  0.04310000  1.0
  H  H628  1  0.90340000  0.31480000  0.98510000  1.0
  H  H629  1  0.88440000  0.35320000  0.01030000  1.0
  H  H630  1  0.84110000  0.32950000  0.98860000  1.0
  H  H631  1  0.82340000  0.24780000  0.04950000  1.0
  H  H632  1  0.79150000  0.28800000  0.02910000  1.0
  H  H633  1  0.83530000  0.31110000  0.05070000  1.0
  H  H634  1  0.86320000  0.26090000  0.86210000  1.0
  H  H635  1  0.82110000  0.33620000  0.93600000  1.0
  H  H636  1  0.78630000  0.34820000  0.90830000  1.0
  H  H637  1  0.84630000  0.37110000  0.91080000  1.0
  H  H638  1  0.89830000  0.27000000  0.93480000  1.0
  H  H639  1  0.92690000  0.30320000  0.90990000  1.0
  H  H640  1  0.91520000  0.24030000  0.90610000  1.0
  H  H641  1  0.60560000  0.26580000  0.87070000  1.0
  H  H642  1  0.64510000  0.11710000  0.84750000  1.0
  H  H643  1  0.67980000  0.16610000  0.83510000  1.0
  H  H644  1  0.61900000  0.15730000  0.82480000  1.0
  H  H645  1  0.55450000  0.19770000  0.89070000  1.0
  H  H646  1  0.56460000  0.13600000  0.88260000  1.0
  H  H647  1  0.53820000  0.17600000  0.86000000  1.0
  H  H648  1  0.70230000  0.95350000  0.21030000  1.0
  H  H649  1  0.65580000  0.92940000  0.23010000  1.0
  H  H650  1  0.65210000  0.99020000  0.21920000  1.0
  H  H651  1  0.22290000  0.02450000  0.59240000  1.0
  H  H652  1  0.18680000  0.04980000  0.57120000  1.0
  H  H653  1  0.28940000  0.09580000  0.56110000  1.0
  H  H654  1  0.31870000  0.05590000  0.57860000  1.0
  H  H655  1  0.32560000  0.68800000  0.57100000  1.0
  H  H656  1  0.37690000  0.71880000  0.57050000  1.0
  H  H657  1  0.40080000  0.64840000  0.52370000  1.0
  H  H658  1  0.34560000  0.62510000  0.52300000  1.0
  H  H659  1  0.54470000  0.89110000  0.42880000  1.0
  H  H660  1  0.54630000  0.91750000  0.45700000  1.0
  H  H661  1  0.52130000  0.99900000  0.42200000  1.0
  H  H662  1  0.49400000  0.97830000  0.39630000  1.0
  H  H663  1  0.18050000  0.12280000  0.39670000  1.0
  H  H664  1  0.13590000  0.10620000  0.41570000  1.0
  H  H665  1  0.12910000  0.04770000  0.36230000  1.0
  H  H666  1  0.18580000  0.05610000  0.35320000  1.0
  H  H667  1  0.97860000  0.81020000  0.46000000  1.0
  H  H668  1  0.97870000  0.85650000  0.47990000  1.0
  H  H669  1  0.01120000  0.77710000  0.51910000  1.0
  H  H670  1  0.02660000  0.73170000  0.50020000  1.0
  H  H671  1  0.20930000  0.71110000  0.34050000  1.0
  H  H672  1  0.22220000  0.66930000  0.36170000  1.0
  H  H673  1  0.32170000  0.69480000  0.34760000  1.0
  H  H674  1  0.30890000  0.74360000  0.33090000  1.0
  H  H675  1  0.18120000  0.94360000  0.59010000  1.0
  H  H676  1  0.08920000  0.98070000  0.52290000  1.0
  H  H677  1  0.12510000  0.02830000  0.53570000  1.0
  H  H678  1  0.07500000  0.00540000  0.55330000  1.0
  H  H679  1  0.13250000  0.87890000  0.56850000  1.0
  H  H680  1  0.09420000  0.88950000  0.54180000  1.0
  H  H681  1  0.07770000  0.91190000  0.57240000  1.0
  H  H682  1  0.34820000  0.09660000  0.52710000  1.0
  H  H683  1  0.41480000  0.95330000  0.55250000  1.0
  H  H684  1  0.36680000  0.97860000  0.57080000  1.0
  H  H685  1  0.42500000  0.00620000  0.57100000  1.0
  H  H686  1  0.44030000  0.99300000  0.50550000  1.0
  H  H687  1  0.45570000  0.05110000  0.51770000  1.0
  H  H688  1  0.41080000  0.04560000  0.49360000  1.0
  H  H689  1  0.27440000  0.76130000  0.57990000  1.0
  H  H690  1  0.41140000  0.79810000  0.56110000  1.0
  H  H691  1  0.40380000  0.83200000  0.58970000  1.0
  H  H692  1  0.40170000  0.86170000  0.55960000  1.0
  H  H693  1  0.31400000  0.89740000  0.57240000  1.0
  H  H694  1  0.30740000  0.86420000  0.60120000  1.0
  H  H695  1  0.26300000  0.85900000  0.57680000  1.0
  H  H696  1  0.40700000  0.65680000  0.47590000  1.0
  H  H697  1  0.26490000  0.63360000  0.49850000  1.0
  H  H698  1  0.26810000  0.59050000  0.47340000  1.0
  H  H699  1  0.23850000  0.64690000  0.46840000  1.0
  H  H700  1  0.29560000  0.65870000  0.42920000  1.0
  H  H701  1  0.33530000  0.60900000  0.43450000  1.0
  H  H702  1  0.35920000  0.66850000  0.43110000  1.0
  H  H703  1  0.51380000  0.81290000  0.44540000  1.0
  H  H704  1  0.50270000  0.91680000  0.49710000  1.0
  H  H705  1  0.52470000  0.87020000  0.51740000  1.0
  H  H706  1  0.46230000  0.88620000  0.51810000  1.0
  H  H707  1  0.45820000  0.76100000  0.48300000  1.0
  H  H708  1  0.43680000  0.79300000  0.51010000  1.0
  H  H709  1  0.49830000  0.77430000  0.50850000  1.0
  H  H710  1  0.45320000  0.05530000  0.43220000  1.0
  H  H711  1  0.36640000  0.99420000  0.36410000  1.0
  H  H712  1  0.42540000  0.97100000  0.37000000  1.0
  H  H713  1  0.41820000  0.03120000  0.35850000  1.0
  H  H714  1  0.32270000  0.04930000  0.39460000  1.0
  H  H715  1  0.36600000  0.09680000  0.39220000  1.0
  H  H716  1  0.34880000  0.07440000  0.42260000  1.0
  H  H717  1  0.24150000  0.12860000  0.43300000  1.0
  H  H718  1  0.11270000  0.07230000  0.45280000  1.0
  H  H719  1  0.11830000  0.11520000  0.47790000  1.0
  H  H720  1  0.12820000  0.05260000  0.48400000  1.0
  H  H721  1  0.21600000  0.07570000  0.50320000  1.0
  H  H722  1  0.21450000  0.13810000  0.49480000  1.0
  H  H723  1  0.26320000  0.10100000  0.48440000  1.0
  H  H724  1  0.12770000  0.96320000  0.35190000  1.0
  H  H725  1  0.26240000  0.01540000  0.35010000  1.0
  H  H726  1  0.26390000  0.98120000  0.32140000  1.0
  H  H727  1  0.29400000  0.95930000  0.34910000  1.0
  H  H728  1  0.23720000  0.87420000  0.34350000  1.0
  H  H729  1  0.19890000  0.89720000  0.31900000  1.0
  H  H730  1  0.17340000  0.87570000  0.34800000  1.0
  H  H731  1  0.01290000  0.85920000  0.42300000  1.0
  H  H732  1  0.05760000  0.98300000  0.47500000  1.0
  H  H733  1  0.02590000  0.93380000  0.48910000  1.0
  H  H734  1  0.99470000  0.97530000  0.46900000  1.0
  H  H735  1  0.07790000  0.98530000  0.42390000  1.0
  H  H736  1  0.01740000  0.97400000  0.41390000  1.0
  H  H737  1  0.06490000  0.93470000  0.40410000  1.0
  H  H738  1  0.08820000  0.77490000  0.54310000  1.0
  H  H739  1  0.09660000  0.68520000  0.48510000  1.0
  H  H740  1  0.11560000  0.64680000  0.51030000  1.0
  H  H741  1  0.15890000  0.67050000  0.48860000  1.0
  H  H742  1  0.17660000  0.75220000  0.54950000  1.0
  H  H743  1  0.20850000  0.71200000  0.52910000  1.0
  H  H744  1  0.16470000  0.68890000  0.55070000  1.0
  H  H745  1  0.13680000  0.73910000  0.36210000  1.0
  H  H746  1  0.17890000  0.66380000  0.43600000  1.0
  H  H747  1  0.21370000  0.65180000  0.40830000  1.0
  H  H748  1  0.15370000  0.62890000  0.41080000  1.0
  H  H749  1  0.10170000  0.73000000  0.43480000  1.0
  H  H750  1  0.07310000  0.69680000  0.40990000  1.0
  H  H751  1  0.08480000  0.75970000  0.40610000  1.0
  H  H752  1  0.39440000  0.73420000  0.37070000  1.0
  H  H753  1  0.35490000  0.88290000  0.34750000  1.0
  H  H754  1  0.32020000  0.83390000  0.33510000  1.0
  H  H755  1  0.38100000  0.84270000  0.32480000  1.0
  H  H756  1  0.44550000  0.80230000  0.39070000  1.0
  H  H757  1  0.43540000  0.86400000  0.38260000  1.0
  H  H758  1  0.46180000  0.82400000  0.36000000  1.0
  H  H759  1  0.29770000  0.04650000  0.71030000  1.0
  H  H760  1  0.34420000  0.07060000  0.73010000  1.0
  H  H761  1  0.34790000  0.00980000  0.71920000  1.0
  H  H762  1  0.47550000  0.72290000  0.84240000  1.0
  H  H763  1  0.45020000  0.68680000  0.82120000  1.0
  H  H764  1  0.40420000  0.78940000  0.81110000  1.0
  H  H765  1  0.44410000  0.81870000  0.82860000  1.0
  H  H766  1  0.81200000  0.82560000  0.82100000  1.0
  H  H767  1  0.78120000  0.87690000  0.82050000  1.0
  H  H768  1  0.85160000  0.90080000  0.77370000  1.0
  H  H769  1  0.87490000  0.84560000  0.77300000  1.0
  H  H770  1  0.60890000  0.04470000  0.67880000  1.0
  H  H771  1  0.58250000  0.04630000  0.70700000  1.0
  H  H772  1  0.50100000  0.02130000  0.67200000  1.0
  H  H773  1  0.52170000  0.99400000  0.64630000  1.0
  H  H774  1  0.37720000  0.68050000  0.64670000  1.0
  H  H775  1  0.39380000  0.63590000  0.66570000  1.0
  H  H776  1  0.45230000  0.62910000  0.61230000  1.0
  H  H777  1  0.44390000  0.68580000  0.60320000  1.0
  H  H778  1  0.68980000  0.47860000  0.71000000  1.0
  H  H779  1  0.64350000  0.47870000  0.72990000  1.0
  H  H780  1  0.72290000  0.51120000  0.76910000  1.0
  H  H781  1  0.76830000  0.52660000  0.75020000  1.0
  H  H782  1  0.78890000  0.70930000  0.59050000  1.0
  H  H783  1  0.83070000  0.72220000  0.61170000  1.0
  H  H784  1  0.80520000  0.82170000  0.59760000  1.0
  H  H785  1  0.75640000  0.80890000  0.58090000  1.0
  H  H786  1  0.55640000  0.68120000  0.84010000  1.0
  H  H787  1  0.51930000  0.58920000  0.77290000  1.0
  H  H788  1  0.47170000  0.62510000  0.78570000  1.0
  H  H789  1  0.49460000  0.57500000  0.80330000  1.0
  H  H790  1  0.62110000  0.63250000  0.81850000  1.0
  H  H791  1  0.61050000  0.59420000  0.79180000  1.0
  H  H792  1  0.58810000  0.57770000  0.82240000  1.0
  H  H793  1  0.40340000  0.84820000  0.77710000  1.0
  H  H794  1  0.54670000  0.91480000  0.80250000  1.0
  H  H795  1  0.52140000  0.86680000  0.82080000  1.0
  H  H796  1  0.49380000  0.92500000  0.82100000  1.0
  H  H797  1  0.50700000  0.94030000  0.75550000  1.0
  H  H798  1  0.44890000  0.95570000  0.76770000  1.0
  H  H799  1  0.45440000  0.91080000  0.74360000  1.0
  H  H800  1  0.73870000  0.77440000  0.82990000  1.0
  H  H801  1  0.70190000  0.91140000  0.81110000  1.0
  H  H802  1  0.66800000  0.90380000  0.83970000  1.0
  H  H803  1  0.63830000  0.90170000  0.80960000  1.0
  H  H804  1  0.60260000  0.81400000  0.82240000  1.0
  H  H805  1  0.63580000  0.80740000  0.85120000  1.0
  H  H806  1  0.64100000  0.76300000  0.82680000  1.0
  H  H807  1  0.84320000  0.90700000  0.72590000  1.0
  H  H808  1  0.86640000  0.76490000  0.74850000  1.0
  H  H809  1  0.90950000  0.76810000  0.72340000  1.0
  H  H810  1  0.85310000  0.73850000  0.71840000  1.0
  H  H811  1  0.84130000  0.79560000  0.67920000  1.0
  H  H812  1  0.89100000  0.83530000  0.68450000  1.0
  H  H813  1  0.83150000  0.85920000  0.68110000  1.0
  H  H814  1  0.68710000  0.01380000  0.69540000  1.0
  H  H815  1  0.58320000  0.00270000  0.74710000  1.0
  H  H816  1  0.62980000  0.02470000  0.76740000  1.0
  H  H817  1  0.61380000  0.96230000  0.76810000  1.0
  H  H818  1  0.73900000  0.95820000  0.73300000  1.0
  H  H819  1  0.70700000  0.93680000  0.76010000  1.0
  H  H820  1  0.72570000  0.99830000  0.75850000  1.0
  H  H821  1  0.44470000  0.95320000  0.68220000  1.0
  H  H822  1  0.50580000  0.86640000  0.61410000  1.0
  H  H823  1  0.52900000  0.92540000  0.62000000  1.0
  H  H824  1  0.46880000  0.91820000  0.60850000  1.0
  H  H825  1  0.45070000  0.82270000  0.64460000  1.0
  H  H826  1  0.40320000  0.86600000  0.64220000  1.0
  H  H827  1  0.42560000  0.84880000  0.67260000  1.0
  H  H828  1  0.37140000  0.74150000  0.68300000  1.0
  H  H829  1  0.42770000  0.61270000  0.70280000  1.0
  H  H830  1  0.38480000  0.61830000  0.72790000  1.0
  H  H831  1  0.44740000  0.62820000  0.73400000  1.0
  H  H832  1  0.42430000  0.71600000  0.75320000  1.0
  H  H833  1  0.36190000  0.71450000  0.74480000  1.0
  H  H834  1  0.39900000  0.76320000  0.73440000  1.0
  H  H835  1  0.53680000  0.62770000  0.60190000  1.0
  H  H836  1  0.48460000  0.76240000  0.60010000  1.0
  H  H837  1  0.51880000  0.76390000  0.57140000  1.0
  H  H838  1  0.54070000  0.79400000  0.59910000  1.0
  H  H839  1  0.62580000  0.73720000  0.59350000  1.0
  H  H840  1  0.60280000  0.69890000  0.56900000  1.0
  H  H841  1  0.62430000  0.67340000  0.59800000  1.0
  H  H842  1  0.64080000  0.51290000  0.67300000  1.0
  H  H843  1  0.51700000  0.55760000  0.72500000  1.0
  H  H844  1  0.56620000  0.52590000  0.73910000  1.0
  H  H845  1  0.52470000  0.49470000  0.71900000  1.0
  H  H846  1  0.51470000  0.57790000  0.67390000  1.0
  H  H847  1  0.52600000  0.51740000  0.66390000  1.0
  H  H848  1  0.56530000  0.56490000  0.65410000  1.0
  H  H849  1  0.72510000  0.58820000  0.79310000  1.0
  H  H850  1  0.81480000  0.59660000  0.73510000  1.0
  H  H851  1  0.85320000  0.61560000  0.76030000  1.0
  H  H852  1  0.82950000  0.65890000  0.73860000  1.0
  H  H853  1  0.74780000  0.67660000  0.79950000  1.0
  H  H854  1  0.78800000  0.70850000  0.77910000  1.0
  H  H855  1  0.81110000  0.66470000  0.80070000  1.0
  H  H856  1  0.76090000  0.63680000  0.61210000  1.0
  H  H857  1  0.83620000  0.67890000  0.68600000  1.0
  H  H858  1  0.84820000  0.71370000  0.65830000  1.0
  H  H859  1  0.87110000  0.65370000  0.66080000  1.0
  H  H860  1  0.77000000  0.60170000  0.68480000  1.0
  H  H861  1  0.80320000  0.57310000  0.65990000  1.0
  H  H862  1  0.74030000  0.58480000  0.65610000  1.0
  H  H863  1  0.76580000  0.89440000  0.62070000  1.0
  H  H864  1  0.61710000  0.85490000  0.59750000  1.0
  H  H865  1  0.66610000  0.82020000  0.58510000  1.0
  H  H866  1  0.65730000  0.88100000  0.57480000  1.0
  H  H867  1  0.69770000  0.94550000  0.64070000  1.0
  H  H868  1  0.63600000  0.93540000  0.63260000  1.0
  H  H869  1  0.67600000  0.96180000  0.61000000  1.0
  H  H870  1  0.45350000  0.79770000  0.96030000  1.0
  H  H871  1  0.42940000  0.84420000  0.98010000  1.0
  H  H872  1  0.49020000  0.84790000  0.96920000  1.0
  H  H873  1  0.52450000  0.27710000  0.34240000  1.0
  H  H874  1  0.54980000  0.31320000  0.32120000  1.0
  H  H875  1  0.59580000  0.21060000  0.31110000  1.0
  H  H876  1  0.55590000  0.18130000  0.32860000  1.0
  H  H877  1  0.18800000  0.17440000  0.32100000  1.0
  H  H878  1  0.21880000  0.12310000  0.32050000  1.0
  H  H879  1  0.14840000  0.09920000  0.27370000  1.0
  H  H880  1  0.12510000  0.15440000  0.27300000  1.0
  H  H881  1  0.39110000  0.95530000  0.17880000  1.0
  H  H882  1  0.41750000  0.95370000  0.20700000  1.0
  H  H883  1  0.49900000  0.97870000  0.17200000  1.0
  H  H884  1  0.47830000  0.00600000  0.14630000  1.0
  H  H885  1  0.62280000  0.31950000  0.14670000  1.0
  H  H886  1  0.60620000  0.36410000  0.16570000  1.0
  H  H887  1  0.54770000  0.37090000  0.11230000  1.0
  H  H888  1  0.55610000  0.31420000  0.10320000  1.0
  H  H889  1  0.31020000  0.52140000  0.21000000  1.0
  H  H890  1  0.35650000  0.52130000  0.22990000  1.0
  H  H891  1  0.27710000  0.48880000  0.26910000  1.0
  H  H892  1  0.23170000  0.47340000  0.25020000  1.0
  H  H893  1  0.21110000  0.29070000  0.09050000  1.0
  H  H894  1  0.16930000  0.27780000  0.11170000  1.0
  H  H895  1  0.19480000  0.17830000  0.09760000  1.0
  H  H896  1  0.24360000  0.19110000  0.08090000  1.0
  H  H897  1  0.44360000  0.31880000  0.34010000  1.0
  H  H898  1  0.48070000  0.41080000  0.27290000  1.0
  H  H899  1  0.52830000  0.37490000  0.28570000  1.0
  H  H900  1  0.50540000  0.42500000  0.30330000  1.0
  H  H901  1  0.37890000  0.36750000  0.31850000  1.0
  H  H902  1  0.38950000  0.40580000  0.29180000  1.0
  H  H903  1  0.41190000  0.42230000  0.32240000  1.0
  H  H904  1  0.59660000  0.15180000  0.27710000  1.0
  H  H905  1  0.45330000  0.08520000  0.30250000  1.0
  H  H906  1  0.47860000  0.13320000  0.32080000  1.0
  H  H907  1  0.50620000  0.07500000  0.32100000  1.0
  H  H908  1  0.49300000  0.05970000  0.25550000  1.0
  H  H909  1  0.55110000  0.04430000  0.26770000  1.0
  H  H910  1  0.54560000  0.08920000  0.24360000  1.0
  H  H911  1  0.26130000  0.22560000  0.32990000  1.0
  H  H912  1  0.29810000  0.08860000  0.31110000  1.0
  H  H913  1  0.33200000  0.09620000  0.33970000  1.0
  H  H914  1  0.36170000  0.09830000  0.30960000  1.0
  H  H915  1  0.39740000  0.18600000  0.32240000  1.0
  H  H916  1  0.36420000  0.19260000  0.35120000  1.0
  H  H917  1  0.35900000  0.23700000  0.32680000  1.0
  H  H918  1  0.15680000  0.09300000  0.22590000  1.0
  H  H919  1  0.13360000  0.23510000  0.24850000  1.0
  H  H920  1  0.09050000  0.23190000  0.22340000  1.0
  H  H921  1  0.14690000  0.26150000  0.21840000  1.0
  H  H922  1  0.15870000  0.20440000  0.17920000  1.0
  H  H923  1  0.10900000  0.16470000  0.18450000  1.0
  H  H924  1  0.16850000  0.14080000  0.18110000  1.0
  H  H925  1  0.31290000  0.98620000  0.19540000  1.0
  H  H926  1  0.41680000  0.99730000  0.24710000  1.0
  H  H927  1  0.37020000  0.97530000  0.26740000  1.0
  H  H928  1  0.38620000  0.03770000  0.26810000  1.0
  H  H929  1  0.26100000  0.04180000  0.23300000  1.0
  H  H930  1  0.29300000  0.06320000  0.26010000  1.0
  H  H931  1  0.27430000  0.00170000  0.25850000  1.0
  H  H932  1  0.55530000  0.04680000  0.18220000  1.0
  H  H933  1  0.49420000  0.13360000  0.11410000  1.0
  H  H934  1  0.47100000  0.07460000  0.12000000  1.0
  H  H935  1  0.53120000  0.08180000  0.10850000  1.0
  H  H936  1  0.54930000  0.17730000  0.14460000  1.0
  H  H937  1  0.59680000  0.13400000  0.14220000  1.0
  H  H938  1  0.57440000  0.15120000  0.17260000  1.0
  H  H939  1  0.62860000  0.25850000  0.18300000  1.0
  H  H940  1  0.57230000  0.38730000  0.20280000  1.0
  H  H941  1  0.61520000  0.38170000  0.22790000  1.0
  H  H942  1  0.55260000  0.37180000  0.23400000  1.0
  H  H943  1  0.57570000  0.28400000  0.25320000  1.0
  H  H944  1  0.63810000  0.28550000  0.24480000  1.0
  H  H945  1  0.60100000  0.23680000  0.23440000  1.0
  H  H946  1  0.46320000  0.37230000  0.10190000  1.0
  H  H947  1  0.51540000  0.23760000  0.10010000  1.0
  H  H948  1  0.48120000  0.23610000  0.07140000  1.0
  H  H949  1  0.45930000  0.20600000  0.09910000  1.0
  H  H950  1  0.37420000  0.26280000  0.09350000  1.0
  H  H951  1  0.39720000  0.30110000  0.06900000  1.0
  H  H952  1  0.37570000  0.32660000  0.09800000  1.0
  H  H953  1  0.35920000  0.48710000  0.17300000  1.0
  H  H954  1  0.48300000  0.44240000  0.22500000  1.0
  H  H955  1  0.43380000  0.47410000  0.23910000  1.0
  H  H956  1  0.47530000  0.50530000  0.21900000  1.0
  H  H957  1  0.48530000  0.42210000  0.17390000  1.0
  H  H958  1  0.47400000  0.48260000  0.16390000  1.0
  H  H959  1  0.43470000  0.43510000  0.15410000  1.0
  H  H960  1  0.27490000  0.41180000  0.29310000  1.0
  H  H961  1  0.18520000  0.40340000  0.23510000  1.0
  H  H962  1  0.14680000  0.38440000  0.26030000  1.0
  H  H963  1  0.17050000  0.34110000  0.23860000  1.0
  H  H964  1  0.25220000  0.32340000  0.29950000  1.0
  H  H965  1  0.21200000  0.29150000  0.27910000  1.0
  H  H966  1  0.18890000  0.33530000  0.30070000  1.0
  H  H967  1  0.23910000  0.36320000  0.11210000  1.0
  H  H968  1  0.16380000  0.32110000  0.18600000  1.0
  H  H969  1  0.15180000  0.28630000  0.15830000  1.0
  H  H970  1  0.12890000  0.34630000  0.16080000  1.0
  H  H971  1  0.23000000  0.39830000  0.18480000  1.0
  H  H972  1  0.19680000  0.42690000  0.15990000  1.0
  H  H973  1  0.25970000  0.41520000  0.15610000  1.0
  H  H974  1  0.23420000  0.10560000  0.12070000  1.0
  H  H975  1  0.38290000  0.14510000  0.09750000  1.0
  H  H976  1  0.33390000  0.17980000  0.08510000  1.0
  H  H977  1  0.34270000  0.11900000  0.07480000  1.0
  H  H978  1  0.30230000  0.05450000  0.14070000  1.0
  H  H979  1  0.36400000  0.06460000  0.13260000  1.0
  H  H980  1  0.32400000  0.03820000  0.11000000  1.0
  H  H981  1  0.54650000  0.20230000  0.46030000  1.0
  H  H982  1  0.57060000  0.15580000  0.48010000  1.0
  H  H983  1  0.50980000  0.15210000  0.46920000  1.0
  Pd  Pd984  1  0.75874000  0.49601000  0.20444000  1.0
  Pd  Pd985  1  0.83499000  0.77235000  0.22866000  1.0
  Pd  Pd986  1  0.95508000  0.57007000  0.31237000  1.0
  Pd  Pd987  1  0.68848000  0.47579000  0.34586000  1.0
  Pd  Pd988  1  0.57371000  0.68346000  0.26938000  1.0
  Pd  Pd989  1  0.76483000  0.74709000  0.37290000  1.0
  Pd  Pd990  1  0.24126000  0.50399000  0.70444000  1.0
  Pd  Pd991  1  0.16501000  0.22765000  0.72866000  1.0
  Pd  Pd992  1  0.04492000  0.42993000  0.81237000  1.0
  Pd  Pd993  1  0.31152000  0.52421000  0.84586000  1.0
  Pd  Pd994  1  0.42629000  0.31654000  0.76938000  1.0
  Pd  Pd995  1  0.23517000  0.25291000  0.87290000  1.0
  Pd  Pd996  1  0.00399000  0.25874000  0.45444000  1.0
  Pd  Pd997  1  0.72765000  0.33499000  0.47866000  1.0
  Pd  Pd998  1  0.92993000  0.45508000  0.56237000  1.0
  Pd  Pd999  1  0.02421000  0.18848000  0.59586000  1.0
  Pd  Pd1000  1  0.81654000  0.07371000  0.51938000  1.0
  Pd  Pd1001  1  0.75291000  0.26483000  0.62290000  1.0
  Pd  Pd1002  1  0.99601000  0.74126000  0.95444000  1.0
  Pd  Pd1003  1  0.27235000  0.66501000  0.97866000  1.0
  Pd  Pd1004  1  0.07007000  0.54492000  0.06237000  1.0
  Pd  Pd1005  1  0.97579000  0.81152000  0.09586000  1.0
  Pd  Pd1006  1  0.18346000  0.92629000  0.01938000  1.0
  Pd  Pd1007  1  0.24709000  0.73517000  0.12290000  1.0
  Pd  Pd1008  1  0.74126000  0.99601000  0.04556000  1.0
  Pd  Pd1009  1  0.66501000  0.27235000  0.02134000  1.0
  Pd  Pd1010  1  0.54492000  0.07007000  0.93763000  1.0
  Pd  Pd1011  1  0.81152000  0.97579000  0.90414000  1.0
  Pd  Pd1012  1  0.92629000  0.18346000  0.98062000  1.0
  Pd  Pd1013  1  0.73517000  0.24709000  0.87710000  1.0
  Pd  Pd1014  1  0.25874000  0.00399000  0.54556000  1.0
  Pd  Pd1015  1  0.33499000  0.72765000  0.52134000  1.0
  Pd  Pd1016  1  0.45508000  0.92993000  0.43763000  1.0
  Pd  Pd1017  1  0.18848000  0.02421000  0.40414000  1.0
  Pd  Pd1018  1  0.07371000  0.81654000  0.48062000  1.0
  Pd  Pd1019  1  0.26483000  0.75291000  0.37710000  1.0
  Pd  Pd1020  1  0.49601000  0.75874000  0.79556000  1.0
  Pd  Pd1021  1  0.77235000  0.83499000  0.77134000  1.0
  Pd  Pd1022  1  0.57007000  0.95508000  0.68763000  1.0
  Pd  Pd1023  1  0.47579000  0.68848000  0.65414000  1.0
  Pd  Pd1024  1  0.68346000  0.57371000  0.73062000  1.0
  Pd  Pd1025  1  0.74709000  0.76483000  0.62710000  1.0
  Pd  Pd1026  1  0.50399000  0.24126000  0.29556000  1.0
  Pd  Pd1027  1  0.22765000  0.16501000  0.27134000  1.0
  Pd  Pd1028  1  0.42993000  0.04492000  0.18763000  1.0
  Pd  Pd1029  1  0.52421000  0.31152000  0.15414000  1.0
  Pd  Pd1030  1  0.31654000  0.42629000  0.23062000  1.0
  Pd  Pd1031  1  0.25291000  0.23517000  0.12710000  1.0
  C  C1032  1  0.63820000  0.54220000  0.19667000  1.0
  C  C1033  1  0.66390000  0.52480000  0.16932000  1.0
  C  C1034  1  0.61670000  0.49880000  0.14822000  1.0
  C  C1035  1  0.60430000  0.50400000  0.20967000  1.0
  C  C1036  1  0.60790000  0.59540000  0.19044000  1.0
  C  C1037  1  0.88210000  0.47720000  0.21646000  1.0
  C  C1038  1  0.85774000  0.42604000  0.20616000  1.0
  C  C1039  1  0.89550000  0.39480000  0.18759000  1.0
  C  C1040  1  0.89870000  0.51310000  0.19060000  1.0
  C  C1041  1  0.92630000  0.47130000  0.23958000  1.0
  C  C1042  1  0.83100000  0.68100000  0.18156000  1.0
  C  C1043  1  0.81440000  0.73460000  0.16920000  1.0
  C  C1044  1  0.83520000  0.74380000  0.13736000  1.0
  C  C1045  1  0.89265000  0.67140000  0.18016000  1.0
  C  C1046  1  0.80150000  0.63650000  0.16932000  1.0
  C  C1047  1  0.82460000  0.84500000  0.28246000  1.0
  C  C1048  1  0.87390000  0.86060000  0.26621000  1.0
  C  C1049  1  0.87890000  0.92590000  0.26606000  1.0
  C  C1050  1  0.76850000  0.87110000  0.27204000  1.0
  C  C1051  1  0.82900000  0.85280000  0.31160000  1.0
  C  C1052  1  0.98270000  0.65880000  0.26672000  1.0
  C  C1053  1  0.02378000  0.65920000  0.29030000  1.0
  C  C1054  1  0.07700000  0.67220000  0.27813000  1.0
  C  C1055  1  0.99410000  0.61780000  0.24404000  1.0
  C  C1056  1  0.96760000  0.71250000  0.25249000  1.0
  C  C1057  1  0.89980000  0.47600000  0.34849000  1.0
  C  C1058  1  0.95661000  0.46070000  0.33713000  1.0
  C  C1059  1  0.92030000  0.51150000  0.10712000  1.0
  C  C1060  1  0.90270000  0.49680000  0.37928000  1.0
  C  C1061  1  0.85550000  0.43540000  0.34716000  1.0
  C  C1062  1  0.69480000  0.41120000  0.28722000  1.0
  C  C1063  1  0.70230000  0.37360000  0.31232000  1.0
  C  C1064  1  0.68220000  0.31890000  0.30561000  1.0
  C  C1065  1  0.63246000  0.41850000  0.27989000  1.0
  C  C1066  1  0.72450000  0.39800000  0.26160000  1.0
  C  C1067  1  0.70850000  0.55190000  0.39841000  1.0
  C  C1068  1  0.66140000  0.51670000  0.40296000  1.0
  C  C1069  1  0.65660000  0.49210000  0.43467000  1.0
  C  C1070  1  0.76250000  0.52100000  0.40787000  1.0
  C  C1071  1  0.70420000  0.60559000  0.41046000  1.0
  C  C1072  1  0.54190000  0.57850000  0.30341000  1.0
  C  C1073  1  0.50040000  0.62010000  0.31009000  1.0
  C  C1074  1  0.44770000  0.59880000  0.31619000  1.0
  C  C1075  1  0.52890000  0.54340000  0.27777000  1.0
  C  C1076  1  0.55140000  0.54280000  0.33043000  1.0
  C  C1077  1  0.63273000  0.77460000  0.23286000  1.0
  C  C1078  1  0.57980000  0.75690000  0.21911000  1.0
  C  C1079  1  0.94610000  0.29850000  0.04958000  1.0
  C  C1080  1  0.62530000  0.82200000  0.25126000  1.0
  C  C1081  1  0.67390000  0.78090000  0.21169000  1.0
  C  C1082  1  0.65487000  0.78730000  0.34878000  1.0
  C  C1083  1  0.65250000  0.79500000  0.38020000  1.0
  C  C1084  1  0.61550000  0.83820000  0.38930000  1.0
  C  C1085  1  0.67750000  0.84090000  0.33454000  1.0
  C  C1086  1  0.59830000  0.77390000  0.33577000  1.0
  C  C1087  1  0.87510000  0.68845000  0.38650000  1.0
  C  C1088  1  0.88030000  0.74540000  0.39597000  1.0
  C  C1089  1  0.91950000  0.75850000  0.42118000  1.0
  C  C1090  1  0.85630000  0.65450000  0.40908000  1.0
  C  C1091  1  0.93560000  0.67300000  0.37461000  1.0
  C  C1092  1  0.86919000  0.43340000  0.06382000  1.0
  C  C1093  1  0.83650000  0.45370000  0.03574000  1.0
  C  C1094  1  0.36180000  0.45780000  0.69667000  1.0
  C  C1095  1  0.33610000  0.47520000  0.66932000  1.0
  C  C1096  1  0.38330000  0.50120000  0.64822000  1.0
  C  C1097  1  0.39570000  0.49600000  0.70967000  1.0
  C  C1098  1  0.39210000  0.40460000  0.69044000  1.0
  C  C1099  1  0.11790000  0.52280000  0.71646000  1.0
  C  C1100  1  0.14226000  0.57396000  0.70616000  1.0
  C  C1101  1  0.10450000  0.60520000  0.68759000  1.0
  C  C1102  1  0.10130000  0.48690000  0.69060000  1.0
  C  C1103  1  0.07370000  0.52870000  0.73958000  1.0
  C  C1104  1  0.16900000  0.31900000  0.68156000  1.0
  C  C1105  1  0.18560000  0.26540000  0.66920000  1.0
  C  C1106  1  0.16480000  0.25620000  0.63736000  1.0
  C  C1107  1  0.10735000  0.32860000  0.68016000  1.0
  C  C1108  1  0.19850000  0.36350000  0.66932000  1.0
  C  C1109  1  0.17540000  0.15500000  0.78246000  1.0
  C  C1110  1  0.12610000  0.13940000  0.76621000  1.0
  C  C1111  1  0.12110000  0.07410000  0.76606000  1.0
  C  C1112  1  0.23150000  0.12890000  0.77204000  1.0
  C  C1113  1  0.17100000  0.14720000  0.81160000  1.0
  C  C1114  1  0.01730000  0.34120000  0.76672000  1.0
  C  C1115  1  0.97622000  0.34080000  0.79030000  1.0
  C  C1116  1  0.92300000  0.32780000  0.77813000  1.0
  C  C1117  1  0.00590000  0.38220000  0.74404000  1.0
  C  C1118  1  0.03240000  0.28750000  0.75249000  1.0
  C  C1119  1  0.10020000  0.52400000  0.84849000  1.0
  C  C1120  1  0.04339000  0.53930000  0.83713000  1.0
  C  C1121  1  0.07970000  0.48850000  0.60712000  1.0
  C  C1122  1  0.09730000  0.50320000  0.87928000  1.0
  C  C1123  1  0.14450000  0.56460000  0.84716000  1.0
  C  C1124  1  0.30520000  0.58880000  0.78722000  1.0
  C  C1125  1  0.29770000  0.62640000  0.81232000  1.0
  C  C1126  1  0.31780000  0.68110000  0.80561000  1.0
  C  C1127  1  0.36754000  0.58150000  0.77989000  1.0
  C  C1128  1  0.27550000  0.60200000  0.76160000  1.0
  C  C1129  1  0.29150000  0.44810000  0.89841000  1.0
  C  C1130  1  0.33860000  0.48330000  0.90296000  1.0
  C  C1131  1  0.34340000  0.50790000  0.93467000  1.0
  C  C1132  1  0.23750000  0.47900000  0.90787000  1.0
  C  C1133  1  0.29580000  0.39441000  0.91046000  1.0
  C  C1134  1  0.45810000  0.42150000  0.80341000  1.0
  C  C1135  1  0.49960000  0.37990000  0.81009000  1.0
  C  C1136  1  0.55230000  0.40120000  0.81619000  1.0
  C  C1137  1  0.47110000  0.45660000  0.77777000  1.0
  C  C1138  1  0.44860000  0.45720000  0.83043000  1.0
  C  C1139  1  0.36727000  0.22540000  0.73286000  1.0
  C  C1140  1  0.42020000  0.24310000  0.71911000  1.0
  C  C1141  1  0.05390000  0.70150000  0.54958000  1.0
  C  C1142  1  0.37470000  0.17800000  0.75126000  1.0
  C  C1143  1  0.32610000  0.21910000  0.71169000  1.0
  C  C1144  1  0.34513000  0.21270000  0.84878000  1.0
  C  C1145  1  0.34750000  0.20500000  0.88020000  1.0
  C  C1146  1  0.38450000  0.16180000  0.88930000  1.0
  C  C1147  1  0.32250000  0.15910000  0.83454000  1.0
  C  C1148  1  0.40170000  0.22610000  0.83577000  1.0
  C  C1149  1  0.12490000  0.31155000  0.88650000  1.0
  C  C1150  1  0.11970000  0.25460000  0.89597000  1.0
  C  C1151  1  0.08050000  0.24150000  0.92118000  1.0
  C  C1152  1  0.14370000  0.34550000  0.90908000  1.0
  C  C1153  1  0.06440000  0.32700000  0.87461000  1.0
  C  C1154  1  0.13081000  0.56660000  0.56382000  1.0
  C  C1155  1  0.16350000  0.54630000  0.53574000  1.0
  C  C1156  1  0.95780000  0.13820000  0.44667000  1.0
  C  C1157  1  0.97520000  0.16390000  0.41932000  1.0
  C  C1158  1  0.00120000  0.11670000  0.39822000  1.0
  C  C1159  1  0.99600000  0.10430000  0.45967000  1.0
  C  C1160  1  0.90460000  0.10790000  0.44044000  1.0
  C  C1161  1  0.02280000  0.38210000  0.46646000  1.0
  C  C1162  1  0.07396000  0.35774000  0.45616000  1.0
  C  C1163  1  0.10520000  0.39550000  0.43759000  1.0
  C  C1164  1  0.98690000  0.39870000  0.44060000  1.0
  C  C1165  1  0.02870000  0.42630000  0.48958000  1.0
  C  C1166  1  0.81900000  0.33100000  0.43156000  1.0
  C  C1167  1  0.76540000  0.31440000  0.41920000  1.0
  C  C1168  1  0.75620000  0.33520000  0.38736000  1.0
  C  C1169  1  0.82860000  0.39265000  0.43016000  1.0
  C  C1170  1  0.86350000  0.30150000  0.41932000  1.0
  C  C1171  1  0.65500000  0.32460000  0.53246000  1.0
  C  C1172  1  0.63940000  0.37390000  0.51621000  1.0
  C  C1173  1  0.57410000  0.37890000  0.51606000  1.0
  C  C1174  1  0.62890000  0.26850000  0.52204000  1.0
  C  C1175  1  0.64720000  0.32900000  0.56160000  1.0
  C  C1176  1  0.84120000  0.48270000  0.51672000  1.0
  C  C1177  1  0.84080000  0.52378000  0.54030000  1.0
  C  C1178  1  0.82780000  0.57700000  0.52813000  1.0
  C  C1179  1  0.88220000  0.49410000  0.49404000  1.0
  C  C1180  1  0.78750000  0.46760000  0.50249000  1.0
  C  C1181  1  0.02400000  0.39980000  0.59849000  1.0
  C  C1182  1  0.03930000  0.45661000  0.58713000  1.0
  C  C1183  1  0.98850000  0.42030000  0.35712000  1.0
  C  C1184  1  0.00320000  0.40270000  0.62928000  1.0
  C  C1185  1  0.06460000  0.35550000  0.59716000  1.0
  C  C1186  1  0.08880000  0.19480000  0.53722000  1.0
  C  C1187  1  0.12640000  0.20230000  0.56232000  1.0
  C  C1188  1  0.18110000  0.18220000  0.55561000  1.0
  C  C1189  1  0.08150000  0.13246000  0.52989000  1.0
  C  C1190  1  0.10200000  0.22450000  0.51160000  1.0
  C  C1191  1  0.94810000  0.20850000  0.64841000  1.0
  C  C1192  1  0.98330000  0.16140000  0.65296000  1.0
  C  C1193  1  0.00790000  0.15660000  0.68467000  1.0
  C  C1194  1  0.97900000  0.26250000  0.65787000  1.0
  C  C1195  1  0.89441000  0.20420000  0.66046000  1.0
  C  C1196  1  0.92150000  0.04190000  0.55341000  1.0
  C  C1197  1  0.87990000  0.00040000  0.56009000  1.0
  C  C1198  1  0.90120000  0.94770000  0.56619000  1.0
  C  C1199  1  0.95660000  0.02890000  0.52777000  1.0
  C  C1200  1  0.95720000  0.05140000  0.58043000  1.0
  C  C1201  1  0.72540000  0.13273000  0.48286000  1.0
  C  C1202  1  0.74310000  0.07980000  0.46911000  1.0
  C  C1203  1  0.20150000  0.44610000  0.29958000  1.0
  C  C1204  1  0.67800000  0.12530000  0.50126000  1.0
  C  C1205  1  0.71910000  0.17390000  0.46169000  1.0
  C  C1206  1  0.71270000  0.15487000  0.59878000  1.0
  C  C1207  1  0.70500000  0.15250000  0.63020000  1.0
  C  C1208  1  0.66180000  0.11550000  0.63930000  1.0
  C  C1209  1  0.65910000  0.17750000  0.58454000  1.0
  C  C1210  1  0.72610000  0.09830000  0.58577000  1.0
  C  C1211  1  0.81155000  0.37510000  0.63650000  1.0
  C  C1212  1  0.75460000  0.38030000  0.64597000  1.0
  C  C1213  1  0.74150000  0.41950000  0.67118000  1.0
  C  C1214  1  0.84550000  0.35630000  0.65908000  1.0
  C  C1215  1  0.82700000  0.43560000  0.62461000  1.0
  C  C1216  1  0.06660000  0.36919000  0.31382000  1.0
  C  C1217  1  0.04630000  0.33650000  0.28574000  1.0
  C  C1218  1  0.04220000  0.86180000  0.94667000  1.0
  C  C1219  1  0.02480000  0.83610000  0.91932000  1.0
  C  C1220  1  0.99880000  0.88330000  0.89822000  1.0
  C  C1221  1  0.00400000  0.89570000  0.95967000  1.0
  C  C1222  1  0.09540000  0.89210000  0.94044000  1.0
  C  C1223  1  0.97720000  0.61790000  0.96646000  1.0
  C  C1224  1  0.92604000  0.64226000  0.95616000  1.0
  C  C1225  1  0.89480000  0.60450000  0.93759000  1.0
  C  C1226  1  0.01310000  0.60130000  0.94060000  1.0
  C  C1227  1  0.97130000  0.57370000  0.98958000  1.0
  C  C1228  1  0.18100000  0.66900000  0.93156000  1.0
  C  C1229  1  0.23460000  0.68560000  0.91920000  1.0
  C  C1230  1  0.24380000  0.66480000  0.88736000  1.0
  C  C1231  1  0.17140000  0.60735000  0.93016000  1.0
  C  C1232  1  0.13650000  0.69850000  0.91932000  1.0
  C  C1233  1  0.34500000  0.67540000  0.03246000  1.0
  C  C1234  1  0.36060000  0.62610000  0.01621000  1.0
  C  C1235  1  0.42590000  0.62110000  0.01606000  1.0
  C  C1236  1  0.37110000  0.73150000  0.02204000  1.0
  C  C1237  1  0.35280000  0.67100000  0.06160000  1.0
  C  C1238  1  0.15880000  0.51730000  0.01672000  1.0
  C  C1239  1  0.15920000  0.47622000  0.04030000  1.0
  C  C1240  1  0.17220000  0.42300000  0.02813000  1.0
  C  C1241  1  0.11780000  0.50590000  0.99404000  1.0
  C  C1242  1  0.21250000  0.53240000  0.00249000  1.0
  C  C1243  1  0.97600000  0.60020000  0.09849000  1.0
  C  C1244  1  0.96070000  0.54339000  0.08713000  1.0
  C  C1245  1  0.01150000  0.57970000  0.85712000  1.0
  C  C1246  1  0.99680000  0.59730000  0.12928000  1.0
  C  C1247  1  0.93540000  0.64450000  0.09716000  1.0
  C  C1248  1  0.91120000  0.80520000  0.03722000  1.0
  C  C1249  1  0.87360000  0.79770000  0.06232000  1.0
  C  C1250  1  0.81890000  0.81780000  0.05561000  1.0
  C  C1251  1  0.91850000  0.86754000  0.02989000  1.0
  C  C1252  1  0.89800000  0.77550000  0.01160000  1.0
  C  C1253  1  0.05190000  0.79150000  0.14841000  1.0
  C  C1254  1  0.01670000  0.83860000  0.15296000  1.0
  C  C1255  1  0.99210000  0.84340000  0.18467000  1.0
  C  C1256  1  0.02100000  0.73750000  0.15787000  1.0
  C  C1257  1  0.10559000  0.79580000  0.16046000  1.0
  C  C1258  1  0.07850000  0.95810000  0.05341000  1.0
  C  C1259  1  0.12010000  0.99960000  0.06009000  1.0
  C  C1260  1  0.09880000  0.05230000  0.06619000  1.0
  C  C1261  1  0.04340000  0.97110000  0.02777000  1.0
  C  C1262  1  0.04280000  0.94860000  0.08043000  1.0
  C  C1263  1  0.27460000  0.86727000  0.98286000  1.0
  C  C1264  1  0.25690000  0.92020000  0.96911000  1.0
  C  C1265  1  0.79850000  0.55390000  0.79958000  1.0
  C  C1266  1  0.32200000  0.87470000  0.00126000  1.0
  C  C1267  1  0.28090000  0.82610000  0.96169000  1.0
  C  C1268  1  0.28730000  0.84513000  0.09878000  1.0
  C  C1269  1  0.29500000  0.84750000  0.13020000  1.0
  C  C1270  1  0.33820000  0.88450000  0.13930000  1.0
  C  C1271  1  0.34090000  0.82250000  0.08454000  1.0
  C  C1272  1  0.27390000  0.90170000  0.08577000  1.0
  C  C1273  1  0.18845000  0.62490000  0.13650000  1.0
  C  C1274  1  0.24540000  0.61970000  0.14597000  1.0
  C  C1275  1  0.25850000  0.58050000  0.17118000  1.0
  C  C1276  1  0.15450000  0.64370000  0.15908000  1.0
  C  C1277  1  0.17300000  0.56440000  0.12461000  1.0
  C  C1278  1  0.93340000  0.63081000  0.81382000  1.0
  C  C1279  1  0.95370000  0.66350000  0.78574000  1.0
  C  C1280  1  0.86180000  0.04220000  0.05333000  1.0
  C  C1281  1  0.83610000  0.02480000  0.08068000  1.0
  C  C1282  1  0.88330000  0.99880000  0.10178000  1.0
  C  C1283  1  0.89570000  0.00400000  0.04033000  1.0
  C  C1284  1  0.89210000  0.09540000  0.05956000  1.0
  C  C1285  1  0.61790000  0.97720000  0.03354000  1.0
  C  C1286  1  0.64226000  0.92604000  0.04384000  1.0
  C  C1287  1  0.60450000  0.89480000  0.06241000  1.0
  C  C1288  1  0.60130000  0.01310000  0.05940000  1.0
  C  C1289  1  0.57370000  0.97130000  0.01042000  1.0
  C  C1290  1  0.66900000  0.18100000  0.06844000  1.0
  C  C1291  1  0.68560000  0.23460000  0.08080000  1.0
  C  C1292  1  0.66480000  0.24380000  0.11264000  1.0
  C  C1293  1  0.60735000  0.17140000  0.06984000  1.0
  C  C1294  1  0.69850000  0.13650000  0.08068000  1.0
  C  C1295  1  0.67540000  0.34500000  0.96754000  1.0
  C  C1296  1  0.62610000  0.36060000  0.98379000  1.0
  C  C1297  1  0.62110000  0.42590000  0.98394000  1.0
  C  C1298  1  0.73150000  0.37110000  0.97796000  1.0
  C  C1299  1  0.67100000  0.35280000  0.93840000  1.0
  C  C1300  1  0.51730000  0.15880000  0.98328000  1.0
  C  C1301  1  0.47622000  0.15920000  0.95970000  1.0
  C  C1302  1  0.42300000  0.17220000  0.97187000  1.0
  C  C1303  1  0.50590000  0.11780000  0.00596000  1.0
  C  C1304  1  0.53240000  0.21250000  0.99751000  1.0
  C  C1305  1  0.60020000  0.97600000  0.90151000  1.0
  C  C1306  1  0.54339000  0.96070000  0.91287000  1.0
  C  C1307  1  0.57970000  0.01150000  0.14288000  1.0
  C  C1308  1  0.59730000  0.99680000  0.87072000  1.0
  C  C1309  1  0.64450000  0.93540000  0.90284000  1.0
  C  C1310  1  0.80520000  0.91120000  0.96278000  1.0
  C  C1311  1  0.79770000  0.87360000  0.93768000  1.0
  C  C1312  1  0.81780000  0.81890000  0.94439000  1.0
  C  C1313  1  0.86754000  0.91850000  0.97011000  1.0
  C  C1314  1  0.77550000  0.89800000  0.98840000  1.0
  C  C1315  1  0.79150000  0.05190000  0.85159000  1.0
  C  C1316  1  0.83860000  0.01670000  0.84704000  1.0
  C  C1317  1  0.84340000  0.99210000  0.81533000  1.0
  C  C1318  1  0.73750000  0.02100000  0.84213000  1.0
  C  C1319  1  0.79580000  0.10559000  0.83954000  1.0
  C  C1320  1  0.95810000  0.07850000  0.94659000  1.0
  C  C1321  1  0.99960000  0.12010000  0.93991000  1.0
  C  C1322  1  0.05230000  0.09880000  0.93381000  1.0
  C  C1323  1  0.97110000  0.04340000  0.97223000  1.0
  C  C1324  1  0.94860000  0.04280000  0.91957000  1.0
  C  C1325  1  0.86727000  0.27460000  0.01714000  1.0
  C  C1326  1  0.92020000  0.25690000  0.03089000  1.0
  C  C1327  1  0.55390000  0.79850000  0.20042000  1.0
  C  C1328  1  0.87470000  0.32200000  0.99874000  1.0
  C  C1329  1  0.82610000  0.28090000  0.03831000  1.0
  C  C1330  1  0.84513000  0.28730000  0.90122000  1.0
  C  C1331  1  0.84750000  0.29500000  0.86980000  1.0
  C  C1332  1  0.88450000  0.33820000  0.86070000  1.0
  C  C1333  1  0.82250000  0.34090000  0.91546000  1.0
  C  C1334  1  0.90170000  0.27390000  0.91423000  1.0
  C  C1335  1  0.62490000  0.18845000  0.86350000  1.0
  C  C1336  1  0.61970000  0.24540000  0.85403000  1.0
  C  C1337  1  0.58050000  0.25850000  0.82882000  1.0
  C  C1338  1  0.64370000  0.15450000  0.84092000  1.0
  C  C1339  1  0.56440000  0.17300000  0.87539000  1.0
  C  C1340  1  0.63081000  0.93340000  0.18618000  1.0
  C  C1341  1  0.66350000  0.95370000  0.21426000  1.0
  C  C1342  1  0.13820000  0.95780000  0.55333000  1.0
  C  C1343  1  0.16390000  0.97520000  0.58068000  1.0
  C  C1344  1  0.11670000  0.00120000  0.60178000  1.0
  C  C1345  1  0.10430000  0.99600000  0.54033000  1.0
  C  C1346  1  0.10790000  0.90460000  0.55956000  1.0
  C  C1347  1  0.38210000  0.02280000  0.53354000  1.0
  C  C1348  1  0.35774000  0.07396000  0.54384000  1.0
  C  C1349  1  0.39550000  0.10520000  0.56241000  1.0
  C  C1350  1  0.39870000  0.98690000  0.55940000  1.0
  C  C1351  1  0.42630000  0.02870000  0.51042000  1.0
  C  C1352  1  0.33100000  0.81900000  0.56844000  1.0
  C  C1353  1  0.31440000  0.76540000  0.58080000  1.0
  C  C1354  1  0.33520000  0.75620000  0.61264000  1.0
  C  C1355  1  0.39265000  0.82860000  0.56984000  1.0
  C  C1356  1  0.30150000  0.86350000  0.58068000  1.0
  C  C1357  1  0.32460000  0.65500000  0.46754000  1.0
  C  C1358  1  0.37390000  0.63940000  0.48379000  1.0
  C  C1359  1  0.37890000  0.57410000  0.48394000  1.0
  C  C1360  1  0.26850000  0.62890000  0.47796000  1.0
  C  C1361  1  0.32900000  0.64720000  0.43840000  1.0
  C  C1362  1  0.48270000  0.84120000  0.48328000  1.0
  C  C1363  1  0.52378000  0.84080000  0.45970000  1.0
  C  C1364  1  0.57700000  0.82780000  0.47187000  1.0
  C  C1365  1  0.49410000  0.88220000  0.50596000  1.0
  C  C1366  1  0.46760000  0.78750000  0.49751000  1.0
  C  C1367  1  0.39980000  0.02400000  0.40151000  1.0
  C  C1368  1  0.45661000  0.03930000  0.41287000  1.0
  C  C1369  1  0.42030000  0.98850000  0.64288000  1.0
  C  C1370  1  0.40270000  0.00320000  0.37072000  1.0
  C  C1371  1  0.35550000  0.06460000  0.40284000  1.0
  C  C1372  1  0.19480000  0.08880000  0.46278000  1.0
  C  C1373  1  0.20230000  0.12640000  0.43768000  1.0
  C  C1374  1  0.18220000  0.18110000  0.44439000  1.0
  C  C1375  1  0.13246000  0.08150000  0.47011000  1.0
  C  C1376  1  0.22450000  0.10200000  0.48840000  1.0
  C  C1377  1  0.20850000  0.94810000  0.35159000  1.0
  C  C1378  1  0.16140000  0.98330000  0.34704000  1.0
  C  C1379  1  0.15660000  0.00790000  0.31533000  1.0
  C  C1380  1  0.26250000  0.97900000  0.34213000  1.0
  C  C1381  1  0.20420000  0.89441000  0.33954000  1.0
  C  C1382  1  0.04190000  0.92150000  0.44659000  1.0
  C  C1383  1  0.00040000  0.87990000  0.43991000  1.0
  C  C1384  1  0.94770000  0.90120000  0.43381000  1.0
  C  C1385  1  0.02890000  0.95660000  0.47223000  1.0
  C  C1386  1  0.05140000  0.95720000  0.41957000  1.0
  C  C1387  1  0.13273000  0.72540000  0.51714000  1.0
  C  C1388  1  0.07980000  0.74310000  0.53089000  1.0
  C  C1389  1  0.44610000  0.20150000  0.70042000  1.0
  C  C1390  1  0.12530000  0.67800000  0.49874000  1.0
  C  C1391  1  0.17390000  0.71910000  0.53831000  1.0
  C  C1392  1  0.15487000  0.71270000  0.40122000  1.0
  C  C1393  1  0.15250000  0.70500000  0.36980000  1.0
  C  C1394  1  0.11550000  0.66180000  0.36070000  1.0
  C  C1395  1  0.17750000  0.65910000  0.41546000  1.0
  C  C1396  1  0.09830000  0.72610000  0.41423000  1.0
  C  C1397  1  0.37510000  0.81155000  0.36350000  1.0
  C  C1398  1  0.38030000  0.75460000  0.35403000  1.0
  C  C1399  1  0.41950000  0.74150000  0.32882000  1.0
  C  C1400  1  0.35630000  0.84550000  0.34092000  1.0
  C  C1401  1  0.43560000  0.82700000  0.37539000  1.0
  C  C1402  1  0.36919000  0.06660000  0.68618000  1.0
  C  C1403  1  0.33650000  0.04630000  0.71426000  1.0
  C  C1404  1  0.54220000  0.63820000  0.80333000  1.0
  C  C1405  1  0.52480000  0.66390000  0.83068000  1.0
  C  C1406  1  0.49880000  0.61670000  0.85178000  1.0
  C  C1407  1  0.50400000  0.60430000  0.79033000  1.0
  C  C1408  1  0.59540000  0.60790000  0.80956000  1.0
  C  C1409  1  0.47720000  0.88210000  0.78354000  1.0
  C  C1410  1  0.42604000  0.85774000  0.79384000  1.0
  C  C1411  1  0.39480000  0.89550000  0.81241000  1.0
  C  C1412  1  0.51310000  0.89870000  0.80940000  1.0
  C  C1413  1  0.47130000  0.92630000  0.76042000  1.0
  C  C1414  1  0.68100000  0.83100000  0.81844000  1.0
  C  C1415  1  0.73460000  0.81440000  0.83080000  1.0
  C  C1416  1  0.74380000  0.83520000  0.86264000  1.0
  C  C1417  1  0.67140000  0.89265000  0.81984000  1.0
  C  C1418  1  0.63650000  0.80150000  0.83068000  1.0
  C  C1419  1  0.84500000  0.82460000  0.71754000  1.0
  C  C1420  1  0.86060000  0.87390000  0.73379000  1.0
  C  C1421  1  0.92590000  0.87890000  0.73394000  1.0
  C  C1422  1  0.87110000  0.76850000  0.72796000  1.0
  C  C1423  1  0.85280000  0.82900000  0.68840000  1.0
  C  C1424  1  0.65880000  0.98270000  0.73328000  1.0
  C  C1425  1  0.65920000  0.02378000  0.70970000  1.0
  C  C1426  1  0.67220000  0.07700000  0.72187000  1.0
  C  C1427  1  0.61780000  0.99410000  0.75596000  1.0
  C  C1428  1  0.71250000  0.96760000  0.74751000  1.0
  C  C1429  1  0.47600000  0.89980000  0.65151000  1.0
  C  C1430  1  0.46070000  0.95661000  0.66287000  1.0
  C  C1431  1  0.51150000  0.92030000  0.89288000  1.0
  C  C1432  1  0.49680000  0.90270000  0.62072000  1.0
  C  C1433  1  0.43540000  0.85550000  0.65284000  1.0
  C  C1434  1  0.41120000  0.69480000  0.71278000  1.0
  C  C1435  1  0.37360000  0.70230000  0.68768000  1.0
  C  C1436  1  0.31890000  0.68220000  0.69439000  1.0
  C  C1437  1  0.41850000  0.63246000  0.72011000  1.0
  C  C1438  1  0.39800000  0.72450000  0.73840000  1.0
  C  C1439  1  0.55190000  0.70850000  0.60159000  1.0
  C  C1440  1  0.51670000  0.66140000  0.59704000  1.0
  C  C1441  1  0.49210000  0.65660000  0.56533000  1.0
  C  C1442  1  0.52100000  0.76250000  0.59213000  1.0
  C  C1443  1  0.60559000  0.70420000  0.58954000  1.0
  C  C1444  1  0.57850000  0.54190000  0.69659000  1.0
  C  C1445  1  0.62010000  0.50040000  0.68991000  1.0
  C  C1446  1  0.59880000  0.44770000  0.68381000  1.0
  C  C1447  1  0.54340000  0.52890000  0.72223000  1.0
  C  C1448  1  0.54280000  0.55140000  0.66957000  1.0
  C  C1449  1  0.77460000  0.63273000  0.76714000  1.0
  C  C1450  1  0.75690000  0.57980000  0.78089000  1.0
  C  C1451  1  0.29850000  0.94610000  0.95042000  1.0
  C  C1452  1  0.82200000  0.62530000  0.74874000  1.0
  C  C1453  1  0.78090000  0.67390000  0.78831000  1.0
  C  C1454  1  0.78730000  0.65487000  0.65122000  1.0
  C  C1455  1  0.79500000  0.65250000  0.61980000  1.0
  C  C1456  1  0.83820000  0.61550000  0.61070000  1.0
  C  C1457  1  0.84090000  0.67750000  0.66546000  1.0
  C  C1458  1  0.77390000  0.59830000  0.66423000  1.0
  C  C1459  1  0.68845000  0.87510000  0.61350000  1.0
  C  C1460  1  0.74540000  0.88030000  0.60403000  1.0
  C  C1461  1  0.75850000  0.91950000  0.57882000  1.0
  C  C1462  1  0.65450000  0.85630000  0.59092000  1.0
  C  C1463  1  0.67300000  0.93560000  0.62539000  1.0
  C  C1464  1  0.43340000  0.86919000  0.93618000  1.0
  C  C1465  1  0.45370000  0.83650000  0.96426000  1.0
  C  C1466  1  0.45780000  0.36180000  0.30333000  1.0
  C  C1467  1  0.47520000  0.33610000  0.33068000  1.0
  C  C1468  1  0.50120000  0.38330000  0.35178000  1.0
  C  C1469  1  0.49600000  0.39570000  0.29033000  1.0
  C  C1470  1  0.40460000  0.39210000  0.30956000  1.0
  C  C1471  1  0.52280000  0.11790000  0.28354000  1.0
  C  C1472  1  0.57396000  0.14226000  0.29384000  1.0
  C  C1473  1  0.60520000  0.10450000  0.31241000  1.0
  C  C1474  1  0.48690000  0.10130000  0.30940000  1.0
  C  C1475  1  0.52870000  0.07370000  0.26042000  1.0
  C  C1476  1  0.31900000  0.16900000  0.31844000  1.0
  C  C1477  1  0.26540000  0.18560000  0.33080000  1.0
  C  C1478  1  0.25620000  0.16480000  0.36264000  1.0
  C  C1479  1  0.32860000  0.10735000  0.31984000  1.0
  C  C1480  1  0.36350000  0.19850000  0.33068000  1.0
  C  C1481  1  0.15500000  0.17540000  0.21754000  1.0
  C  C1482  1  0.13940000  0.12610000  0.23379000  1.0
  C  C1483  1  0.07410000  0.12110000  0.23394000  1.0
  C  C1484  1  0.12890000  0.23150000  0.22796000  1.0
  C  C1485  1  0.14720000  0.17100000  0.18840000  1.0
  C  C1486  1  0.34120000  0.01730000  0.23328000  1.0
  C  C1487  1  0.34080000  0.97622000  0.20970000  1.0
  C  C1488  1  0.32780000  0.92300000  0.22187000  1.0
  C  C1489  1  0.38220000  0.00590000  0.25596000  1.0
  C  C1490  1  0.28750000  0.03240000  0.24751000  1.0
  C  C1491  1  0.52400000  0.10020000  0.15151000  1.0
  C  C1492  1  0.53930000  0.04339000  0.16287000  1.0
  C  C1493  1  0.48850000  0.07970000  0.39288000  1.0
  C  C1494  1  0.50320000  0.09730000  0.12072000  1.0
  C  C1495  1  0.56460000  0.14450000  0.15284000  1.0
  C  C1496  1  0.58880000  0.30520000  0.21278000  1.0
  C  C1497  1  0.62640000  0.29770000  0.18768000  1.0
  C  C1498  1  0.68110000  0.31780000  0.19439000  1.0
  C  C1499  1  0.58150000  0.36754000  0.22011000  1.0
  C  C1500  1  0.60200000  0.27550000  0.23840000  1.0
  C  C1501  1  0.44810000  0.29150000  0.10159000  1.0
  C  C1502  1  0.48330000  0.33860000  0.09704000  1.0
  C  C1503  1  0.50790000  0.34340000  0.06533000  1.0
  C  C1504  1  0.47900000  0.23750000  0.09213000  1.0
  C  C1505  1  0.39441000  0.29580000  0.08954000  1.0
  C  C1506  1  0.42150000  0.45810000  0.19659000  1.0
  C  C1507  1  0.37990000  0.49960000  0.18991000  1.0
  C  C1508  1  0.40120000  0.55230000  0.18381000  1.0
  C  C1509  1  0.45660000  0.47110000  0.22223000  1.0
  C  C1510  1  0.45720000  0.44860000  0.16957000  1.0
  C  C1511  1  0.22540000  0.36727000  0.26714000  1.0
  C  C1512  1  0.24310000  0.42020000  0.28089000  1.0
  C  C1513  1  0.70150000  0.05390000  0.45042000  1.0
  C  C1514  1  0.17800000  0.37470000  0.24874000  1.0
  C  C1515  1  0.21910000  0.32610000  0.28831000  1.0
  C  C1516  1  0.21270000  0.34513000  0.15122000  1.0
  C  C1517  1  0.20500000  0.34750000  0.11980000  1.0
  C  C1518  1  0.16180000  0.38450000  0.11070000  1.0
  C  C1519  1  0.15910000  0.32250000  0.16546000  1.0
  C  C1520  1  0.22610000  0.40170000  0.16423000  1.0
  C  C1521  1  0.31155000  0.12490000  0.11350000  1.0
  C  C1522  1  0.25460000  0.11970000  0.10403000  1.0
  C  C1523  1  0.24150000  0.08050000  0.07882000  1.0
  C  C1524  1  0.34550000  0.14370000  0.09092000  1.0
  C  C1525  1  0.32700000  0.06440000  0.12539000  1.0
  C  C1526  1  0.56660000  0.13081000  0.43618000  1.0
  C  C1527  1  0.54630000  0.16350000  0.46426000  1.0
  S  S1528  1  0.69884000  0.55792000  0.21961000  1.0
  S  S1529  1  0.82666000  0.51457000  0.23504000  1.0
  S  S1530  1  0.81102000  0.68665000  0.22005000  1.0
  S  S1531  1  0.81984000  0.77179000  0.27609000  1.0
  S  S1532  1  0.91983000  0.63660000  0.28442000  1.0
  S  S1533  1  0.87538000  0.53139000  0.32450000  1.0
  S  S1534  1  0.71752000  0.48007000  0.30061000  1.0
  S  S1535  1  0.71050000  0.56002000  0.35898000  1.0
  S  S1536  1  0.60691000  0.61563000  0.29694000  1.0
  S  S1537  1  0.65390000  0.71516000  0.25406000  1.0
  S  S1538  1  0.69945000  0.73043000  0.34033000  1.0
  S  S1539  1  0.82713000  0.68834000  0.35653000  1.0
  S  S1540  1  0.30116000  0.44208000  0.71961000  1.0
  S  S1541  1  0.17334000  0.48543000  0.73504000  1.0
  S  S1542  1  0.18898000  0.31335000  0.72005000  1.0
  S  S1543  1  0.18016000  0.22821000  0.77609000  1.0
  S  S1544  1  0.08017000  0.36340000  0.78442000  1.0
  S  S1545  1  0.12462000  0.46861000  0.82450000  1.0
  S  S1546  1  0.28248000  0.51993000  0.80061000  1.0
  S  S1547  1  0.28950000  0.43998000  0.85898000  1.0
  S  S1548  1  0.39309000  0.38437000  0.79694000  1.0
  S  S1549  1  0.34610000  0.28484000  0.75406000  1.0
  S  S1550  1  0.30055000  0.26957000  0.84033000  1.0
  S  S1551  1  0.17287000  0.31166000  0.85653000  1.0
  S  S1552  1  0.94208000  0.19884000  0.46961000  1.0
  S  S1553  1  0.98543000  0.32666000  0.48504000  1.0
  S  S1554  1  0.81335000  0.31102000  0.47005000  1.0
  S  S1555  1  0.72821000  0.31984000  0.52609000  1.0
  S  S1556  1  0.86340000  0.41983000  0.53442000  1.0
  S  S1557  1  0.96861000  0.37538000  0.57450000  1.0
  S  S1558  1  0.01993000  0.21752000  0.55061000  1.0
  S  S1559  1  0.93998000  0.21050000  0.60898000  1.0
  S  S1560  1  0.88437000  0.10691000  0.54694000  1.0
  S  S1561  1  0.78484000  0.15390000  0.50406000  1.0
  S  S1562  1  0.76957000  0.19945000  0.59033000  1.0
  S  S1563  1  0.81166000  0.32713000  0.60653000  1.0
  S  S1564  1  0.05792000  0.80116000  0.96961000  1.0
  S  S1565  1  0.01457000  0.67334000  0.98504000  1.0
  S  S1566  1  0.18665000  0.68898000  0.97005000  1.0
  S  S1567  1  0.27179000  0.68016000  0.02609000  1.0
  S  S1568  1  0.13660000  0.58017000  0.03442000  1.0
  S  S1569  1  0.03139000  0.62462000  0.07450000  1.0
  S  S1570  1  0.98007000  0.78248000  0.05061000  1.0
  S  S1571  1  0.06002000  0.78950000  0.10898000  1.0
  S  S1572  1  0.11563000  0.89309000  0.04694000  1.0
  S  S1573  1  0.21516000  0.84610000  0.00406000  1.0
  S  S1574  1  0.23043000  0.80055000  0.09033000  1.0
  S  S1575  1  0.18834000  0.67287000  0.10653000  1.0
  S  S1576  1  0.80116000  0.05792000  0.03039000  1.0
  S  S1577  1  0.67334000  0.01457000  0.01496000  1.0
  S  S1578  1  0.68898000  0.18665000  0.02995000  1.0
  S  S1579  1  0.68016000  0.27179000  0.97391000  1.0
  S  S1580  1  0.58017000  0.13660000  0.96558000  1.0
  S  S1581  1  0.62462000  0.03139000  0.92550000  1.0
  S  S1582  1  0.78248000  0.98007000  0.94939000  1.0
  S  S1583  1  0.78950000  0.06002000  0.89102000  1.0
  S  S1584  1  0.89309000  0.11563000  0.95306000  1.0
  S  S1585  1  0.84610000  0.21516000  0.99594000  1.0
  S  S1586  1  0.80055000  0.23043000  0.90967000  1.0
  S  S1587  1  0.67287000  0.18834000  0.89347000  1.0
  S  S1588  1  0.19884000  0.94208000  0.53039000  1.0
  S  S1589  1  0.32666000  0.98543000  0.51496000  1.0
  S  S1590  1  0.31102000  0.81335000  0.52995000  1.0
  S  S1591  1  0.31984000  0.72821000  0.47391000  1.0
  S  S1592  1  0.41983000  0.86340000  0.46558000  1.0
  S  S1593  1  0.37538000  0.96861000  0.42550000  1.0
  S  S1594  1  0.21752000  0.01993000  0.44939000  1.0
  S  S1595  1  0.21050000  0.93998000  0.39102000  1.0
  S  S1596  1  0.10691000  0.88437000  0.45306000  1.0
  S  S1597  1  0.15390000  0.78484000  0.49594000  1.0
  S  S1598  1  0.19945000  0.76957000  0.40967000  1.0
  S  S1599  1  0.32713000  0.81166000  0.39347000  1.0
  S  S1600  1  0.55792000  0.69884000  0.78039000  1.0
  S  S1601  1  0.51457000  0.82666000  0.76496000  1.0
  S  S1602  1  0.68665000  0.81102000  0.77995000  1.0
  S  S1603  1  0.77179000  0.81984000  0.72391000  1.0
  S  S1604  1  0.63660000  0.91983000  0.71558000  1.0
  S  S1605  1  0.53139000  0.87538000  0.67550000  1.0
  S  S1606  1  0.48007000  0.71752000  0.69939000  1.0
  S  S1607  1  0.56002000  0.71050000  0.64102000  1.0
  S  S1608  1  0.61563000  0.60691000  0.70306000  1.0
  S  S1609  1  0.71516000  0.65390000  0.74594000  1.0
  S  S1610  1  0.73043000  0.69945000  0.65967000  1.0
  S  S1611  1  0.68834000  0.82713000  0.64347000  1.0
  S  S1612  1  0.44208000  0.30116000  0.28039000  1.0
  S  S1613  1  0.48543000  0.17334000  0.26496000  1.0
  S  S1614  1  0.31335000  0.18898000  0.27995000  1.0
  S  S1615  1  0.22821000  0.18016000  0.22391000  1.0
  S  S1616  1  0.36340000  0.08017000  0.21558000  1.0
  S  S1617  1  0.46861000  0.12462000  0.17550000  1.0
  S  S1618  1  0.51993000  0.28248000  0.19939000  1.0
  S  S1619  1  0.43998000  0.28950000  0.14102000  1.0
  S  S1620  1  0.38437000  0.39309000  0.20306000  1.0
  S  S1621  1  0.28484000  0.34610000  0.24594000  1.0
  S  S1622  1  0.26957000  0.30055000  0.15967000  1.0
  S  S1623  1  0.31166000  0.17287000  0.14347000  1.0
  Br  Br1624  1  0.76445000  0.62435000  0.28905000  1.0
  Br  Br1625  1  0.23555000  0.37565000  0.78905000  1.0
  Br  Br1626  1  0.87565000  0.26445000  0.53905000  1.0
  Br  Br1627  1  0.12435000  0.73555000  0.03905000  1.0
  Br  Br1628  1  0.73555000  0.12435000  0.96095000  1.0
  Br  Br1629  1  0.26445000  0.87565000  0.46095000  1.0
  Br  Br1630  1  0.62435000  0.76445000  0.71095000  1.0
  Br  Br1631  1  0.37565000  0.23555000  0.21095000  1.0
  N  N1632  1  0.70476000  0.48150000  0.17427000  1.0
  N  N1633  1  0.80879000  0.43568000  0.18961000  1.0
  N  N1634  1  0.84110000  0.78008000  0.18453000  1.0
  N  N1635  1  0.86780000  0.84940000  0.23499000  1.0
  N  N1636  1  0.02647000  0.60522000  0.30435000  1.0
  N  N1637  1  0.98829000  0.50938000  0.33561000  1.0
  N  N1638  1  0.67230000  0.39723000  0.33746000  1.0
  N  N1639  1  0.66300000  0.46735000  0.38764000  1.0
  N  N1640  1  0.49744000  0.65968000  0.28462000  1.0
  N  N1641  1  0.53962000  0.73893000  0.24009000  1.0
  N  N1642  1  0.70986000  0.79601000  0.39037000  1.0
  N  N1643  1  0.82013000  0.76826000  0.40166000  1.0
  N  N1644  1  0.29524000  0.51850000  0.67427000  1.0
  N  N1645  1  0.19121000  0.56432000  0.68961000  1.0
  N  N1646  1  0.15890000  0.21992000  0.68453000  1.0
  N  N1647  1  0.13220000  0.15060000  0.73499000  1.0
  N  N1648  1  0.97353000  0.39478000  0.80435000  1.0
  N  N1649  1  0.01171000  0.49062000  0.83561000  1.0
  N  N1650  1  0.32770000  0.60277000  0.83746000  1.0
  N  N1651  1  0.33700000  0.53265000  0.88764000  1.0
  N  N1652  1  0.50256000  0.34032000  0.78462000  1.0
  N  N1653  1  0.46038000  0.26107000  0.74009000  1.0
  N  N1654  1  0.29014000  0.20399000  0.89037000  1.0
  N  N1655  1  0.17987000  0.23174000  0.90166000  1.0
  N  N1656  1  0.01850000  0.20476000  0.42427000  1.0
  N  N1657  1  0.06432000  0.30879000  0.43961000  1.0
  N  N1658  1  0.71992000  0.34110000  0.43453000  1.0
  N  N1659  1  0.65060000  0.36780000  0.48499000  1.0
  N  N1660  1  0.89478000  0.52647000  0.55435000  1.0
  N  N1661  1  0.99062000  0.48829000  0.58561000  1.0
  N  N1662  1  0.10277000  0.17230000  0.58746000  1.0
  N  N1663  1  0.03265000  0.16300000  0.63764000  1.0
  N  N1664  1  0.84032000  0.99744000  0.53462000  1.0
  N  N1665  1  0.76107000  0.03962000  0.49009000  1.0
  N  N1666  1  0.70399000  0.20986000  0.64037000  1.0
  N  N1667  1  0.73174000  0.32013000  0.65166000  1.0
  N  N1668  1  0.98150000  0.79524000  0.92427000  1.0
  N  N1669  1  0.93568000  0.69121000  0.93961000  1.0
  N  N1670  1  0.28008000  0.65890000  0.93453000  1.0
  N  N1671  1  0.34940000  0.63220000  0.98499000  1.0
  N  N1672  1  0.10522000  0.47353000  0.05435000  1.0
  N  N1673  1  0.00938000  0.51171000  0.08561000  1.0
  N  N1674  1  0.89723000  0.82770000  0.08746000  1.0
  N  N1675  1  0.96735000  0.83700000  0.13764000  1.0
  N  N1676  1  0.15968000  0.00256000  0.03462000  1.0
  N  N1677  1  0.23893000  0.96038000  0.99009000  1.0
  N  N1678  1  0.29601000  0.79014000  0.14037000  1.0
  N  N1679  1  0.26826000  0.67987000  0.15166000  1.0
  N  N1680  1  0.79524000  0.98150000  0.07573000  1.0
  N  N1681  1  0.69121000  0.93568000  0.06039000  1.0
  N  N1682  1  0.65890000  0.28008000  0.06547000  1.0
  N  N1683  1  0.63220000  0.34940000  0.01501000  1.0
  N  N1684  1  0.47353000  0.10522000  0.94565000  1.0
  N  N1685  1  0.51171000  0.00938000  0.91439000  1.0
  N  N1686  1  0.82770000  0.89723000  0.91254000  1.0
  N  N1687  1  0.83700000  0.96735000  0.86236000  1.0
  N  N1688  1  0.00256000  0.15968000  0.96538000  1.0
  N  N1689  1  0.96038000  0.23893000  0.00991000  1.0
  N  N1690  1  0.79014000  0.29601000  0.85963000  1.0
  N  N1691  1  0.67987000  0.26826000  0.84834000  1.0
  N  N1692  1  0.20476000  0.01850000  0.57573000  1.0
  N  N1693  1  0.30879000  0.06432000  0.56039000  1.0
  N  N1694  1  0.34110000  0.71992000  0.56547000  1.0
  N  N1695  1  0.36780000  0.65060000  0.51501000  1.0
  N  N1696  1  0.52647000  0.89478000  0.44565000  1.0
  N  N1697  1  0.48829000  0.99062000  0.41439000  1.0
  N  N1698  1  0.17230000  0.10277000  0.41254000  1.0
  N  N1699  1  0.16300000  0.03265000  0.36236000  1.0
  N  N1700  1  0.99744000  0.84032000  0.46538000  1.0
  N  N1701  1  0.03962000  0.76107000  0.50991000  1.0
  N  N1702  1  0.20986000  0.70399000  0.35963000  1.0
  N  N1703  1  0.32013000  0.73174000  0.34834000  1.0
  N  N1704  1  0.48150000  0.70476000  0.82573000  1.0
  N  N1705  1  0.43568000  0.80879000  0.81039000  1.0
  N  N1706  1  0.78008000  0.84110000  0.81547000  1.0
  N  N1707  1  0.84940000  0.86780000  0.76501000  1.0
  N  N1708  1  0.60522000  0.02647000  0.69565000  1.0
  N  N1709  1  0.50938000  0.98829000  0.66439000  1.0
  N  N1710  1  0.39723000  0.67230000  0.66254000  1.0
  N  N1711  1  0.46735000  0.66300000  0.61236000  1.0
  N  N1712  1  0.65968000  0.49744000  0.71538000  1.0
  N  N1713  1  0.73893000  0.53962000  0.75991000  1.0
  N  N1714  1  0.79601000  0.70986000  0.60963000  1.0
  N  N1715  1  0.76826000  0.82013000  0.59834000  1.0
  N  N1716  1  0.51850000  0.29524000  0.32573000  1.0
  N  N1717  1  0.56432000  0.19121000  0.31039000  1.0
  N  N1718  1  0.21992000  0.15890000  0.31547000  1.0
  N  N1719  1  0.15060000  0.13220000  0.26501000  1.0
  N  N1720  1  0.39478000  0.97353000  0.19565000  1.0
  N  N1721  1  0.49062000  0.01171000  0.16439000  1.0
  N  N1722  1  0.60277000  0.32770000  0.16254000  1.0
  N  N1723  1  0.53265000  0.33700000  0.11236000  1.0
  N  N1724  1  0.34032000  0.50256000  0.21538000  1.0
  N  N1725  1  0.26107000  0.46038000  0.25991000  1.0
  N  N1726  1  0.20399000  0.29014000  0.10963000  1.0
  N  N1727  1  0.23174000  0.17987000  0.09834000  1.0
  O  O1728  1  0.60915000  0.45147000  0.14951000  1.0
  O  O1729  1  0.59377000  0.53560000  0.13321000  1.0
  O  O1730  1  0.88725000  0.39273000  0.16169000  1.0
  O  O1731  1  0.93570000  0.37410000  0.19827000  1.0
  O  O1732  1  0.87497000  0.76248000  0.13081000  1.0
  O  O1733  1  0.79790000  0.72280000  0.12279000  1.0
  O  O1734  1  0.85910000  0.95630000  0.24383000  1.0
  O  O1735  1  0.90230000  0.94200000  0.28835000  1.0
  O  O1736  1  0.11343000  0.63900000  0.27443000  1.0
  O  O1737  1  0.08910000  0.72040000  0.27661000  1.0
  O  O1738  1  0.93372000  0.47495000  0.11867000  1.0
  O  O1739  1  0.87236000  0.53607000  0.10655000  1.0
  O  O1740  1  0.63752000  0.30215000  0.31473000  1.0
  O  O1741  1  0.71346000  0.29044000  0.29289000  1.0
  O  O1742  1  0.67186000  0.45215000  0.44223000  1.0
  O  O1743  1  0.63590000  0.53071000  0.45142000  1.0
  O  O1744  1  0.41544000  0.58910000  0.29581000  1.0
  O  O1745  1  0.43810000  0.58580000  0.34010000  1.0
  O  O1746  1  0.98894000  0.32184000  0.04124000  1.0
  O  O1747  1  0.92279000  0.31006000  0.07270000  1.0
  O  O1748  1  0.64279000  0.88188000  0.39687000  1.0
  O  O1749  1  0.56780000  0.83844000  0.38992000  1.0
  O  O1750  1  0.89461000  0.76500000  0.44436000  1.0
  O  O1751  1  0.96566000  0.75589000  0.41880000  1.0
  O  O1752  1  0.91877000  0.42999000  0.06318000  1.0
  O  O1753  1  0.84090000  0.40910000  0.08476000  1.0
  O  O1754  1  0.94610000  0.12800000  0.26850000  1.0
  O  O1755  1  0.85400000  0.01030000  0.32674000  1.0
  O  O1756  1  0.39085000  0.54853000  0.64951000  1.0
  O  O1757  1  0.40623000  0.46440000  0.63321000  1.0
  O  O1758  1  0.11275000  0.60727000  0.66169000  1.0
  O  O1759  1  0.06430000  0.62590000  0.69827000  1.0
  O  O1760  1  0.12503000  0.23752000  0.63081000  1.0
  O  O1761  1  0.20210000  0.27720000  0.62279000  1.0
  O  O1762  1  0.14090000  0.04370000  0.74383000  1.0
  O  O1763  1  0.09770000  0.05800000  0.78835000  1.0
  O  O1764  1  0.88657000  0.36100000  0.77443000  1.0
  O  O1765  1  0.91090000  0.27960000  0.77661000  1.0
  O  O1766  1  0.06628000  0.52505000  0.61867000  1.0
  O  O1767  1  0.12764000  0.46393000  0.60655000  1.0
  O  O1768  1  0.36248000  0.69785000  0.81473000  1.0
  O  O1769  1  0.28654000  0.70956000  0.79289000  1.0
  O  O1770  1  0.32814000  0.54785000  0.94223000  1.0
  O  O1771  1  0.36410000  0.46929000  0.95142000  1.0
  O  O1772  1  0.58456000  0.41090000  0.79581000  1.0
  O  O1773  1  0.56190000  0.41420000  0.84010000  1.0
  O  O1774  1  0.01106000  0.67816000  0.54124000  1.0
  O  O1775  1  0.07721000  0.68994000  0.57270000  1.0
  O  O1776  1  0.35721000  0.11812000  0.89687000  1.0
  O  O1777  1  0.43220000  0.16156000  0.88992000  1.0
  O  O1778  1  0.10539000  0.23500000  0.94436000  1.0
  O  O1779  1  0.03434000  0.24411000  0.91880000  1.0
  O  O1780  1  0.08123000  0.57001000  0.56318000  1.0
  O  O1781  1  0.15910000  0.59090000  0.58476000  1.0
  O  O1782  1  0.05390000  0.87200000  0.76850000  1.0
  O  O1783  1  0.14600000  0.98970000  0.82674000  1.0
  O  O1784  1  0.04853000  0.10915000  0.39951000  1.0
  O  O1785  1  0.96440000  0.09377000  0.38321000  1.0
  O  O1786  1  0.10727000  0.38725000  0.41169000  1.0
  O  O1787  1  0.12590000  0.43570000  0.44827000  1.0
  O  O1788  1  0.73752000  0.37497000  0.38081000  1.0
  O  O1789  1  0.77720000  0.29790000  0.37279000  1.0
  O  O1790  1  0.54370000  0.35910000  0.49383000  1.0
  O  O1791  1  0.55800000  0.40230000  0.53835000  1.0
  O  O1792  1  0.86100000  0.61343000  0.52443000  1.0
  O  O1793  1  0.77960000  0.58910000  0.52661000  1.0
  O  O1794  1  0.02505000  0.43372000  0.36867000  1.0
  O  O1795  1  0.96393000  0.37236000  0.35655000  1.0
  O  O1796  1  0.19785000  0.13752000  0.56473000  1.0
  O  O1797  1  0.20956000  0.21346000  0.54289000  1.0
  O  O1798  1  0.04785000  0.17186000  0.69223000  1.0
  O  O1799  1  0.96929000  0.13590000  0.70142000  1.0
  O  O1800  1  0.91090000  0.91544000  0.54581000  1.0
  O  O1801  1  0.91420000  0.93810000  0.59010000  1.0
  O  O1802  1  0.17816000  0.48894000  0.29124000  1.0
  O  O1803  1  0.18994000  0.42279000  0.32270000  1.0
  O  O1804  1  0.61812000  0.14279000  0.64687000  1.0
  O  O1805  1  0.66156000  0.06780000  0.63992000  1.0
  O  O1806  1  0.73500000  0.39461000  0.69436000  1.0
  O  O1807  1  0.74411000  0.46566000  0.66880000  1.0
  O  O1808  1  0.07001000  0.41877000  0.31318000  1.0
  O  O1809  1  0.09090000  0.34090000  0.33476000  1.0
  O  O1810  1  0.37200000  0.44610000  0.51850000  1.0
  O  O1811  1  0.48970000  0.35400000  0.57674000  1.0
  O  O1812  1  0.95147000  0.89085000  0.89951000  1.0
  O  O1813  1  0.03560000  0.90623000  0.88321000  1.0
  O  O1814  1  0.89273000  0.61275000  0.91169000  1.0
  O  O1815  1  0.87410000  0.56430000  0.94827000  1.0
  O  O1816  1  0.26248000  0.62503000  0.88081000  1.0
  O  O1817  1  0.22280000  0.70210000  0.87279000  1.0
  O  O1818  1  0.45630000  0.64090000  0.99383000  1.0
  O  O1819  1  0.44200000  0.59770000  0.03835000  1.0
  O  O1820  1  0.13900000  0.38657000  0.02443000  1.0
  O  O1821  1  0.22040000  0.41090000  0.02661000  1.0
  O  O1822  1  0.97495000  0.56628000  0.86867000  1.0
  O  O1823  1  0.03607000  0.62764000  0.85655000  1.0
  O  O1824  1  0.80215000  0.86248000  0.06473000  1.0
  O  O1825  1  0.79044000  0.78654000  0.04289000  1.0
  O  O1826  1  0.95215000  0.82814000  0.19223000  1.0
  O  O1827  1  0.03071000  0.86410000  0.20142000  1.0
  O  O1828  1  0.08910000  0.08456000  0.04581000  1.0
  O  O1829  1  0.08580000  0.06190000  0.09010000  1.0
  O  O1830  1  0.82184000  0.51106000  0.79124000  1.0
  O  O1831  1  0.81006000  0.57721000  0.82270000  1.0
  O  O1832  1  0.38188000  0.85721000  0.14687000  1.0
  O  O1833  1  0.33844000  0.93220000  0.13992000  1.0
  O  O1834  1  0.26500000  0.60539000  0.19436000  1.0
  O  O1835  1  0.25589000  0.53434000  0.16880000  1.0
  O  O1836  1  0.92999000  0.58123000  0.81318000  1.0
  O  O1837  1  0.90910000  0.65910000  0.83476000  1.0
  O  O1838  1  0.62800000  0.55390000  0.01850000  1.0
  O  O1839  1  0.51030000  0.64600000  0.07674000  1.0
  O  O1840  1  0.89085000  0.95147000  0.10049000  1.0
  O  O1841  1  0.90623000  0.03560000  0.11679000  1.0
  O  O1842  1  0.61275000  0.89273000  0.08831000  1.0
  O  O1843  1  0.56430000  0.87410000  0.05173000  1.0
  O  O1844  1  0.62503000  0.26248000  0.11919000  1.0
  O  O1845  1  0.70210000  0.22280000  0.12721000  1.0
  O  O1846  1  0.64090000  0.45630000  0.00617000  1.0
  O  O1847  1  0.59770000  0.44200000  0.96165000  1.0
  O  O1848  1  0.38657000  0.13900000  0.97557000  1.0
  O  O1849  1  0.41090000  0.22040000  0.97339000  1.0
  O  O1850  1  0.56628000  0.97495000  0.13133000  1.0
  O  O1851  1  0.62764000  0.03607000  0.14345000  1.0
  O  O1852  1  0.86248000  0.80215000  0.93527000  1.0
  O  O1853  1  0.78654000  0.79044000  0.95711000  1.0
  O  O1854  1  0.82814000  0.95215000  0.80777000  1.0
  O  O1855  1  0.86410000  0.03071000  0.79858000  1.0
  O  O1856  1  0.08456000  0.08910000  0.95419000  1.0
  O  O1857  1  0.06190000  0.08580000  0.90990000  1.0
  O  O1858  1  0.51106000  0.82184000  0.20876000  1.0
  O  O1859  1  0.57721000  0.81006000  0.17730000  1.0
  O  O1860  1  0.85721000  0.38188000  0.85313000  1.0
  O  O1861  1  0.93220000  0.33844000  0.86008000  1.0
  O  O1862  1  0.60539000  0.26500000  0.80564000  1.0
  O  O1863  1  0.53434000  0.25589000  0.83120000  1.0
  O  O1864  1  0.58123000  0.92999000  0.18682000  1.0
  O  O1865  1  0.65910000  0.90910000  0.16524000  1.0
  O  O1866  1  0.55390000  0.62800000  0.98150000  1.0
  O  O1867  1  0.64600000  0.51030000  0.92326000  1.0
  O  O1868  1  0.10915000  0.04853000  0.60049000  1.0
  O  O1869  1  0.09377000  0.96440000  0.61679000  1.0
  O  O1870  1  0.38725000  0.10727000  0.58831000  1.0
  O  O1871  1  0.43570000  0.12590000  0.55173000  1.0
  O  O1872  1  0.37497000  0.73752000  0.61919000  1.0
  O  O1873  1  0.29790000  0.77720000  0.62721000  1.0
  O  O1874  1  0.35910000  0.54370000  0.50617000  1.0
  O  O1875  1  0.40230000  0.55800000  0.46165000  1.0
  O  O1876  1  0.61343000  0.86100000  0.47557000  1.0
  O  O1877  1  0.58910000  0.77960000  0.47339000  1.0
  O  O1878  1  0.43372000  0.02505000  0.63133000  1.0
  O  O1879  1  0.37236000  0.96393000  0.64345000  1.0
  O  O1880  1  0.13752000  0.19785000  0.43527000  1.0
  O  O1881  1  0.21346000  0.20956000  0.45711000  1.0
  O  O1882  1  0.17186000  0.04785000  0.30777000  1.0
  O  O1883  1  0.13590000  0.96929000  0.29858000  1.0
  O  O1884  1  0.91544000  0.91090000  0.45419000  1.0
  O  O1885  1  0.93810000  0.91420000  0.40990000  1.0
  O  O1886  1  0.48894000  0.17816000  0.70876000  1.0
  O  O1887  1  0.42279000  0.18994000  0.67730000  1.0
  O  O1888  1  0.14279000  0.61812000  0.35313000  1.0
  O  O1889  1  0.06780000  0.66156000  0.36008000  1.0
  O  O1890  1  0.39461000  0.73500000  0.30564000  1.0
  O  O1891  1  0.46566000  0.74411000  0.33120000  1.0
  O  O1892  1  0.41877000  0.07001000  0.68682000  1.0
  O  O1893  1  0.34090000  0.09090000  0.66524000  1.0
  O  O1894  1  0.44610000  0.37200000  0.48150000  1.0
  O  O1895  1  0.35400000  0.48970000  0.42326000  1.0
  O  O1896  1  0.45147000  0.60915000  0.85049000  1.0
  O  O1897  1  0.53560000  0.59377000  0.86679000  1.0
  O  O1898  1  0.39273000  0.88725000  0.83831000  1.0
  O  O1899  1  0.37410000  0.93570000  0.80173000  1.0
  O  O1900  1  0.76248000  0.87497000  0.86919000  1.0
  O  O1901  1  0.72280000  0.79790000  0.87721000  1.0
  O  O1902  1  0.95630000  0.85910000  0.75617000  1.0
  O  O1903  1  0.94200000  0.90230000  0.71165000  1.0
  O  O1904  1  0.63900000  0.11343000  0.72557000  1.0
  O  O1905  1  0.72040000  0.08910000  0.72339000  1.0
  O  O1906  1  0.47495000  0.93372000  0.88133000  1.0
  O  O1907  1  0.53607000  0.87236000  0.89345000  1.0
  O  O1908  1  0.30215000  0.63752000  0.68527000  1.0
  O  O1909  1  0.29044000  0.71346000  0.70711000  1.0
  O  O1910  1  0.45215000  0.67186000  0.55777000  1.0
  O  O1911  1  0.53071000  0.63590000  0.54858000  1.0
  O  O1912  1  0.58910000  0.41544000  0.70419000  1.0
  O  O1913  1  0.58580000  0.43810000  0.65990000  1.0
  O  O1914  1  0.32184000  0.98894000  0.95876000  1.0
  O  O1915  1  0.31006000  0.92279000  0.92730000  1.0
  O  O1916  1  0.88188000  0.64279000  0.60313000  1.0
  O  O1917  1  0.83844000  0.56780000  0.61008000  1.0
  O  O1918  1  0.76500000  0.89461000  0.55564000  1.0
  O  O1919  1  0.75589000  0.96566000  0.58120000  1.0
  O  O1920  1  0.42999000  0.91877000  0.93682000  1.0
  O  O1921  1  0.40910000  0.84090000  0.91524000  1.0
  O  O1922  1  0.12800000  0.94610000  0.73150000  1.0
  O  O1923  1  0.01030000  0.85400000  0.67326000  1.0
  O  O1924  1  0.54853000  0.39085000  0.35049000  1.0
  O  O1925  1  0.46440000  0.40623000  0.36679000  1.0
  O  O1926  1  0.60727000  0.11275000  0.33831000  1.0
  O  O1927  1  0.62590000  0.06430000  0.30173000  1.0
  O  O1928  1  0.23752000  0.12503000  0.36919000  1.0
  O  O1929  1  0.27720000  0.20210000  0.37721000  1.0
  O  O1930  1  0.04370000  0.14090000  0.25617000  1.0
  O  O1931  1  0.05800000  0.09770000  0.21165000  1.0
  O  O1932  1  0.36100000  0.88657000  0.22557000  1.0
  O  O1933  1  0.27960000  0.91090000  0.22339000  1.0
  O  O1934  1  0.52505000  0.06628000  0.38133000  1.0
  O  O1935  1  0.46393000  0.12764000  0.39345000  1.0
  O  O1936  1  0.69785000  0.36248000  0.18527000  1.0
  O  O1937  1  0.70956000  0.28654000  0.20711000  1.0
  O  O1938  1  0.54785000  0.32814000  0.05777000  1.0
  O  O1939  1  0.46929000  0.36410000  0.04858000  1.0
  O  O1940  1  0.41090000  0.58456000  0.20419000  1.0
  O  O1941  1  0.41420000  0.56190000  0.15990000  1.0
  O  O1942  1  0.67816000  0.01106000  0.45876000  1.0
  O  O1943  1  0.68994000  0.07721000  0.42730000  1.0
  O  O1944  1  0.11812000  0.35721000  0.10313000  1.0
  O  O1945  1  0.16156000  0.43220000  0.11008000  1.0
  O  O1946  1  0.23500000  0.10539000  0.05564000  1.0
  O  O1947  1  0.24411000  0.03434000  0.08120000  1.0
  O  O1948  1  0.57001000  0.08123000  0.43682000  1.0
  O  O1949  1  0.59090000  0.15910000  0.41524000  1.0
  O  O1950  1  0.87200000  0.05390000  0.23150000  1.0
  O  O1951  1  0.98970000  0.14600000  0.17326000  1.0
