# generated using pymatgen
data_Zr3H38(C15O4)4
_symmetry_space_group_name_H-M   'P 1'
_cell_length_a   32.62050000
_cell_length_b   32.62050000
_cell_length_c   32.62050000
_cell_angle_alpha   90.00000000
_cell_angle_beta   90.00000000
_cell_angle_gamma   90.00000000
_symmetry_Int_Tables_number   1
_chemical_formula_structural   Zr3H38(C15O4)4
_chemical_formula_sum   'Zr24 H304 C480 O128'
_cell_volume   34711.37684907
_cell_formula_units_Z   8
loop_
 _symmetry_equiv_pos_site_id
 _symmetry_equiv_pos_as_xyz
  1  'x, y, z'
loop_
 _atom_site_type_symbol
 _atom_site_label
 _atom_site_symmetry_multiplicity
 _atom_site_fract_x
 _atom_site_fract_y
 _atom_site_fract_z
 _atom_site_occupancy
  Zr  Zr0  1  0.99911000  0.07087000  0.00062000  1.0
  Zr  Zr1  1  0.92693000  0.99883000  0.00080000  1.0
  Zr  Zr2  1  0.07118000  0.99862000  0.00088000  1.0
  Zr  Zr3  1  0.99913000  0.99860000  0.92864000  1.0
  Zr  Zr4  1  0.99890000  0.99888000  0.07295000  1.0
  Zr  Zr5  1  0.99905000  0.92658000  0.00090000  1.0
  Zr  Zr6  1  0.49873000  0.57138000  0.00051000  1.0
  Zr  Zr7  1  0.42674000  0.49919000  0.00078000  1.0
  Zr  Zr8  1  0.57105000  0.49932000  0.00089000  1.0
  Zr  Zr9  1  0.49897000  0.49907000  0.92864000  1.0
  Zr  Zr10  1  0.49885000  0.49940000  0.07296000  1.0
  Zr  Zr11  1  0.49900000  0.42711000  0.00099000  1.0
  Zr  Zr12  1  0.99817000  0.57104000  0.50167000  1.0
  Zr  Zr13  1  0.92591000  0.49906000  0.50147000  1.0
  Zr  Zr14  1  0.07022000  0.49876000  0.50138000  1.0
  Zr  Zr15  1  0.99798000  0.49905000  0.42930000  1.0
  Zr  Zr16  1  0.99809000  0.49872000  0.57366000  1.0
  Zr  Zr17  1  0.99802000  0.42674000  0.50133000  1.0
  Zr  Zr18  1  0.49909000  0.07053000  0.50097000  1.0
  Zr  Zr19  1  0.42710000  0.99835000  0.50088000  1.0
  Zr  Zr20  1  0.57140000  0.99843000  0.50064000  1.0
  Zr  Zr21  1  0.49921000  0.99861000  0.42865000  1.0
  Zr  Zr22  1  0.49931000  0.99820000  0.57293000  1.0
  Zr  Zr23  1  0.49930000  0.92623000  0.50069000  1.0
  H  H24  1  0.94459000  0.05322000  0.94611000  1.0
  H  H25  1  0.05354000  0.05330000  0.05528000  1.0
  H  H26  1  0.05363000  0.94402000  0.94637000  1.0
  H  H27  1  0.94441000  0.94432000  0.05539000  1.0
  H  H28  1  0.44429000  0.55358000  0.94601000  1.0
  H  H29  1  0.55327000  0.55400000  0.05520000  1.0
  H  H30  1  0.55357000  0.44464000  0.94644000  1.0
  H  H31  1  0.44438000  0.44476000  0.05545000  1.0
  H  H32  1  0.94356000  0.55367000  0.44706000  1.0
  H  H33  1  0.05272000  0.55321000  0.55609000  1.0
  H  H34  1  0.05250000  0.44438000  0.44674000  1.0
  H  H35  1  0.94348000  0.44433000  0.55590000  1.0
  H  H36  1  0.44456000  0.05303000  0.44642000  1.0
  H  H37  1  0.55376000  0.05283000  0.55535000  1.0
  H  H38  1  0.55377000  0.94399000  0.44606000  1.0
  H  H39  1  0.44478000  0.94368000  0.55531000  1.0
  H  H40  1  0.22880000  0.13493000  0.99694000  1.0
  H  H41  1  0.17613000  0.08194000  0.99772000  1.0
  H  H42  1  0.08227000  0.17550000  0.99637000  1.0
  H  H43  1  0.13506000  0.22830000  0.99481000  1.0
  H  H44  1  0.18676000  0.25818000  0.03838000  1.0
  H  H45  1  0.23957000  0.31114000  0.03843000  1.0
  H  H46  1  0.31128000  0.23974000  0.95313000  1.0
  H  H47  1  0.25842000  0.18673000  0.95309000  1.0
  H  H48  1  0.36295000  0.26942000  0.99704000  1.0
  H  H49  1  0.41582000  0.32218000  0.99789000  1.0
  H  H50  1  0.32210000  0.41587000  0.99663000  1.0
  H  H51  1  0.26939000  0.36298000  0.99499000  1.0
  H  H52  1  0.22800000  0.63468000  0.49709000  1.0
  H  H53  1  0.17518000  0.58188000  0.49803000  1.0
  H  H54  1  0.08160000  0.67572000  0.49771000  1.0
  H  H55  1  0.13455000  0.72837000  0.49597000  1.0
  H  H56  1  0.18670000  0.75806000  0.53908000  1.0
  H  H57  1  0.23974000  0.81079000  0.53890000  1.0
  H  H58  1  0.31067000  0.73920000  0.45311000  1.0
  H  H59  1  0.25758000  0.68643000  0.45328000  1.0
  H  H60  1  0.36277000  0.76870000  0.49665000  1.0
  H  H61  1  0.41583000  0.82131000  0.49731000  1.0
  H  H62  1  0.32238000  0.91527000  0.49687000  1.0
  H  H63  1  0.26950000  0.86257000  0.49542000  1.0
  H  H64  1  0.76930000  0.86329000  0.99472000  1.0
  H  H65  1  0.82220000  0.91596000  0.99652000  1.0
  H  H66  1  0.91558000  0.82190000  0.99745000  1.0
  H  H67  1  0.86249000  0.76935000  0.99644000  1.0
  H  H68  1  0.81060000  0.74024000  0.95222000  1.0
  H  H69  1  0.75756000  0.68741000  0.95213000  1.0
  H  H70  1  0.68652000  0.75861000  0.03817000  1.0
  H  H71  1  0.73952000  0.81139000  0.03827000  1.0
  H  H72  1  0.63455000  0.72900000  0.99452000  1.0
  H  H73  1  0.58175000  0.67620000  0.99626000  1.0
  H  H74  1  0.67563000  0.58264000  0.99723000  1.0
  H  H75  1  0.72828000  0.63560000  0.99628000  1.0
  H  H76  1  0.76840000  0.36313000  0.49526000  1.0
  H  H77  1  0.82114000  0.41599000  0.49713000  1.0
  H  H78  1  0.91481000  0.32221000  0.49756000  1.0
  H  H79  1  0.86192000  0.26950000  0.49647000  1.0
  H  H80  1  0.81006000  0.24044000  0.45218000  1.0
  H  H81  1  0.75732000  0.18731000  0.45216000  1.0
  H  H82  1  0.68634000  0.25781000  0.53883000  1.0
  H  H83  1  0.73903000  0.31090000  0.53884000  1.0
  H  H84  1  0.63439000  0.22824000  0.49511000  1.0
  H  H85  1  0.58180000  0.17527000  0.49682000  1.0
  H  H86  1  0.67599000  0.08200000  0.49730000  1.0
  H  H87  1  0.72847000  0.13518000  0.49637000  1.0
  H  H88  1  0.86336000  0.22864000  0.00605000  1.0
  H  H89  1  0.91609000  0.17577000  0.00435000  1.0
  H  H90  1  0.82214000  0.08230000  0.00415000  1.0
  H  H91  1  0.76952000  0.13534000  0.00506000  1.0
  H  H92  1  0.74024000  0.18726000  0.04889000  1.0
  H  H93  1  0.68736000  0.24024000  0.04906000  1.0
  H  H94  1  0.75847000  0.31144000  0.96309000  1.0
  H  H95  1  0.81131000  0.25850000  0.96293000  1.0
  H  H96  1  0.72878000  0.36343000  0.00643000  1.0
  H  H97  1  0.67596000  0.41622000  0.00487000  1.0
  H  H98  1  0.58240000  0.32236000  0.00467000  1.0
  H  H99  1  0.63538000  0.26970000  0.00543000  1.0
  H  H100  1  0.86376000  0.72754000  0.50703000  1.0
  H  H101  1  0.91645000  0.67495000  0.50558000  1.0
  H  H102  1  0.82224000  0.58130000  0.50494000  1.0
  H  H103  1  0.76995000  0.63432000  0.50559000  1.0
  H  H104  1  0.74029000  0.68624000  0.54905000  1.0
  H  H105  1  0.68740000  0.73921000  0.54877000  1.0
  H  H106  1  0.75920000  0.81041000  0.46338000  1.0
  H  H107  1  0.81204000  0.75748000  0.46365000  1.0
  H  H108  1  0.72912000  0.86245000  0.50629000  1.0
  H  H109  1  0.67630000  0.91525000  0.50449000  1.0
  H  H110  1  0.58274000  0.82141000  0.50394000  1.0
  H  H111  1  0.63571000  0.76873000  0.50493000  1.0
  H  H112  1  0.22777000  0.36232000  0.50531000  1.0
  H  H113  1  0.17507000  0.41528000  0.50457000  1.0
  H  H114  1  0.08125000  0.32171000  0.50491000  1.0
  H  H115  1  0.13407000  0.26889000  0.50645000  1.0
  H  H116  1  0.18601000  0.23880000  0.46356000  1.0
  H  H117  1  0.23897000  0.18598000  0.46355000  1.0
  H  H118  1  0.31054000  0.25768000  0.54871000  1.0
  H  H119  1  0.25754000  0.31054000  0.54871000  1.0
  H  H120  1  0.36241000  0.22800000  0.50530000  1.0
  H  H121  1  0.41547000  0.17540000  0.50452000  1.0
  H  H122  1  0.32206000  0.08142000  0.50490000  1.0
  H  H123  1  0.26915000  0.13413000  0.50649000  1.0
  H  H124  1  0.22743000  0.86349000  0.00492000  1.0
  H  H125  1  0.17505000  0.91642000  0.00428000  1.0
  H  H126  1  0.08099000  0.82264000  0.00469000  1.0
  H  H127  1  0.13376000  0.77012000  0.00614000  1.0
  H  H128  1  0.18552000  0.73992000  0.96324000  1.0
  H  H129  1  0.23843000  0.68705000  0.96309000  1.0
  H  H130  1  0.31039000  0.75880000  0.04788000  1.0
  H  H131  1  0.25743000  0.81169000  0.04803000  1.0
  H  H132  1  0.36212000  0.72895000  0.00453000  1.0
  H  H133  1  0.41513000  0.67630000  0.00375000  1.0
  H  H134  1  0.32165000  0.58240000  0.00421000  1.0
  H  H135  1  0.26878000  0.63516000  0.00579000  1.0
  H  H136  1  0.99324000  0.22875000  0.13645000  1.0
  H  H137  1  0.99510000  0.17590000  0.08369000  1.0
  H  H138  1  0.99536000  0.08240000  0.17760000  1.0
  H  H139  1  0.99431000  0.13539000  0.23023000  1.0
  H  H140  1  0.95044000  0.18714000  0.25959000  1.0
  H  H141  1  0.95020000  0.24000000  0.31259000  1.0
  H  H142  1  0.03589000  0.31158000  0.24153000  1.0
  H  H143  1  0.03614000  0.25875000  0.18858000  1.0
  H  H144  1  0.99253000  0.36341000  0.27141000  1.0
  H  H145  1  0.99402000  0.41609000  0.32434000  1.0
  H  H146  1  0.99444000  0.32205000  0.41771000  1.0
  H  H147  1  0.99374000  0.26948000  0.36462000  1.0
  H  H148  1  0.49492000  0.36225000  0.77146000  1.0
  H  H149  1  0.49571000  0.41537000  0.82399000  1.0
  H  H150  1  0.49526000  0.32207000  0.91810000  1.0
  H  H151  1  0.49368000  0.26911000  0.86546000  1.0
  H  H152  1  0.53686000  0.23908000  0.81357000  1.0
  H  H153  1  0.53688000  0.18609000  0.76077000  1.0
  H  H154  1  0.45122000  0.25727000  0.68927000  1.0
  H  H155  1  0.45121000  0.31030000  0.74210000  1.0
  H  H156  1  0.49494000  0.22781000  0.63747000  1.0
  H  H157  1  0.49579000  0.17517000  0.58449000  1.0
  H  H158  1  0.49546000  0.08127000  0.67800000  1.0
  H  H159  1  0.49381000  0.13405000  0.73084000  1.0
  H  H160  1  0.99486000  0.86318000  0.77261000  1.0
  H  H161  1  0.99572000  0.91622000  0.82490000  1.0
  H  H162  1  0.99528000  0.82260000  0.91912000  1.0
  H  H163  1  0.99361000  0.76999000  0.86646000  1.0
  H  H164  1  0.03635000  0.73961000  0.81462000  1.0
  H  H165  1  0.03618000  0.68664000  0.76181000  1.0
  H  H166  1  0.95126000  0.75843000  0.69004000  1.0
  H  H167  1  0.95143000  0.81143000  0.74289000  1.0
  H  H168  1  0.99442000  0.72849000  0.63823000  1.0
  H  H169  1  0.99501000  0.67582000  0.58526000  1.0
  H  H170  1  0.99470000  0.58197000  0.67880000  1.0
  H  H171  1  0.99331000  0.63477000  0.73164000  1.0
  H  H172  1  0.49250000  0.72912000  0.13611000  1.0
  H  H173  1  0.49431000  0.67627000  0.08336000  1.0
  H  H174  1  0.49518000  0.58280000  0.17734000  1.0
  H  H175  1  0.49415000  0.63580000  0.22993000  1.0
  H  H176  1  0.44982000  0.68767000  0.25897000  1.0
  H  H177  1  0.44996000  0.74048000  0.31203000  1.0
  H  H178  1  0.53639000  0.81138000  0.24116000  1.0
  H  H179  1  0.53625000  0.75861000  0.18815000  1.0
  H  H180  1  0.49276000  0.86336000  0.27089000  1.0
  H  H181  1  0.49471000  0.91595000  0.32386000  1.0
  H  H182  1  0.49564000  0.82175000  0.41711000  1.0
  H  H183  1  0.49447000  0.76928000  0.36395000  1.0
  H  H184  1  0.00303000  0.76936000  0.13766000  1.0
  H  H185  1  0.00229000  0.82189000  0.08454000  1.0
  H  H186  1  0.00275000  0.91599000  0.17786000  1.0
  H  H187  1  0.00429000  0.86335000  0.23081000  1.0
  H  H188  1  0.96092000  0.81150000  0.26070000  1.0
  H  H189  1  0.96082000  0.75872000  0.31371000  1.0
  H  H190  1  0.04665000  0.68723000  0.24272000  1.0
  H  H191  1  0.04675000  0.74004000  0.18968000  1.0
  H  H192  1  0.00269000  0.63547000  0.27207000  1.0
  H  H193  1  0.00170000  0.58250000  0.32472000  1.0
  H  H194  1  0.00218000  0.67604000  0.41860000  1.0
  H  H195  1  0.00397000  0.72887000  0.36581000  1.0
  H  H196  1  0.50299000  0.72728000  0.86502000  1.0
  H  H197  1  0.50210000  0.67503000  0.91808000  1.0
  H  H198  1  0.50279000  0.58075000  0.82453000  1.0
  H  H199  1  0.50449000  0.63339000  0.77189000  1.0
  H  H200  1  0.46173000  0.68518000  0.74143000  1.0
  H  H201  1  0.46186000  0.73800000  0.68847000  1.0
  H  H202  1  0.54661000  0.80987000  0.76035000  1.0
  H  H203  1  0.54648000  0.75702000  0.81334000  1.0
  H  H204  1  0.50335000  0.86162000  0.73042000  1.0
  H  H205  1  0.50265000  0.91461000  0.67776000  1.0
  H  H206  1  0.50324000  0.82111000  0.58388000  1.0
  H  H207  1  0.50475000  0.76825000  0.63666000  1.0
  H  H208  1  0.50335000  0.26980000  0.13747000  1.0
  H  H209  1  0.50248000  0.32244000  0.08448000  1.0
  H  H210  1  0.50279000  0.41634000  0.17799000  1.0
  H  H211  1  0.50446000  0.36357000  0.23083000  1.0
  H  H212  1  0.46134000  0.31153000  0.26072000  1.0
  H  H213  1  0.46134000  0.25856000  0.31353000  1.0
  H  H214  1  0.54707000  0.18735000  0.24215000  1.0
  H  H215  1  0.54708000  0.24036000  0.18931000  1.0
  H  H216  1  0.50333000  0.13541000  0.27148000  1.0
  H  H217  1  0.50250000  0.08229000  0.32401000  1.0
  H  H218  1  0.50290000  0.17560000  0.41811000  1.0
  H  H219  1  0.50452000  0.22856000  0.36546000  1.0
  H  H220  1  0.00293000  0.22699000  0.86540000  1.0
  H  H221  1  0.00238000  0.17461000  0.91833000  1.0
  H  H222  1  0.00273000  0.08054000  0.82457000  1.0
  H  H223  1  0.00409000  0.13332000  0.77203000  1.0
  H  H224  1  0.96122000  0.18509000  0.74180000  1.0
  H  H225  1  0.96094000  0.23807000  0.68900000  1.0
  H  H226  1  0.04564000  0.31008000  0.76079000  1.0
  H  H227  1  0.04592000  0.25707000  0.81361000  1.0
  H  H228  1  0.00228000  0.36182000  0.73104000  1.0
  H  H229  1  0.00139000  0.41491000  0.67847000  1.0
  H  H230  1  0.00171000  0.32158000  0.58443000  1.0
  H  H231  1  0.00341000  0.26863000  0.63710000  1.0
  H  H232  1  0.22849000  0.99433000  0.13726000  1.0
  H  H233  1  0.17584000  0.99525000  0.08428000  1.0
  H  H234  1  0.08196000  0.99486000  0.17782000  1.0
  H  H235  1  0.13474000  0.99314000  0.23065000  1.0
  H  H236  1  0.18680000  0.03645000  0.26036000  1.0
  H  H237  1  0.23973000  0.03640000  0.31320000  1.0
  H  H238  1  0.31076000  0.95034000  0.24202000  1.0
  H  H239  1  0.25777000  0.95039000  0.18913000  1.0
  H  H240  1  0.36273000  0.99424000  0.27130000  1.0
  H  H241  1  0.41577000  0.99506000  0.32391000  1.0
  H  H242  1  0.32230000  0.99453000  0.41787000  1.0
  H  H243  1  0.26944000  0.99292000  0.36514000  1.0
  H  H244  1  0.26924000  0.49272000  0.86508000  1.0
  H  H245  1  0.32211000  0.49450000  0.91777000  1.0
  H  H246  1  0.41554000  0.49544000  0.82377000  1.0
  H  H247  1  0.36247000  0.49444000  0.77118000  1.0
  H  H248  1  0.31055000  0.45044000  0.74186000  1.0
  H  H249  1  0.25745000  0.45035000  0.68909000  1.0
  H  H250  1  0.18634000  0.53611000  0.76055000  1.0
  H  H251  1  0.23939000  0.53620000  0.81327000  1.0
  H  H252  1  0.13436000  0.49261000  0.73097000  1.0
  H  H253  1  0.08143000  0.49431000  0.67829000  1.0
  H  H254  1  0.17507000  0.49514000  0.58450000  1.0
  H  H255  1  0.22786000  0.49423000  0.63733000  1.0
  H  H256  1  0.76952000  0.99257000  0.86479000  1.0
  H  H257  1  0.82227000  0.99434000  0.91764000  1.0
  H  H258  1  0.91593000  0.99518000  0.82386000  1.0
  H  H259  1  0.86301000  0.99420000  0.77115000  1.0
  H  H260  1  0.81121000  0.95013000  0.74179000  1.0
  H  H261  1  0.75832000  0.95010000  0.68879000  1.0
  H  H262  1  0.68709000  0.03607000  0.75987000  1.0
  H  H263  1  0.73992000  0.03611000  0.81281000  1.0
  H  H264  1  0.63523000  0.99238000  0.73026000  1.0
  H  H265  1  0.58245000  0.99403000  0.67748000  1.0
  H  H266  1  0.67630000  0.99498000  0.58389000  1.0
  H  H267  1  0.72897000  0.99412000  0.63687000  1.0
  H  H268  1  0.72864000  0.49583000  0.13779000  1.0
  H  H269  1  0.67604000  0.49645000  0.08469000  1.0
  H  H270  1  0.58203000  0.49612000  0.17804000  1.0
  H  H271  1  0.63471000  0.49469000  0.23099000  1.0
  H  H272  1  0.68646000  0.53724000  0.26155000  1.0
  H  H273  1  0.73918000  0.53713000  0.31459000  1.0
  H  H274  1  0.81135000  0.45265000  0.24270000  1.0
  H  H275  1  0.75859000  0.45277000  0.18962000  1.0
  H  H276  1  0.86300000  0.49559000  0.27295000  1.0
  H  H277  1  0.91584000  0.49613000  0.32542000  1.0
  H  H278  1  0.82191000  0.49581000  0.41932000  1.0
  H  H279  1  0.76947000  0.49445000  0.36644000  1.0
  H  H280  1  0.13559000  0.00267000  0.77133000  1.0
  H  H281  1  0.08256000  0.00189000  0.82394000  1.0
  H  H282  1  0.17604000  0.00246000  0.91790000  1.0
  H  H283  1  0.22890000  0.00403000  0.86516000  1.0
  H  H284  1  0.25859000  0.96053000  0.81323000  1.0
  H  H285  1  0.31150000  0.96045000  0.76035000  1.0
  H  H286  1  0.24049000  0.04648000  0.68912000  1.0
  H  H287  1  0.18754000  0.04656000  0.74204000  1.0
  H  H288  1  0.26975000  0.00246000  0.63726000  1.0
  H  H289  1  0.32239000  0.00156000  0.58427000  1.0
  H  H290  1  0.41629000  0.00213000  0.67779000  1.0
  H  H291  1  0.36353000  0.00382000  0.73062000  1.0
  H  H292  1  0.26896000  0.50468000  0.13671000  1.0
  H  H293  1  0.32181000  0.50316000  0.08396000  1.0
  H  H294  1  0.41531000  0.50269000  0.17786000  1.0
  H  H295  1  0.36229000  0.50341000  0.23051000  1.0
  H  H296  1  0.31043000  0.54679000  0.26026000  1.0
  H  H297  1  0.25747000  0.54672000  0.31316000  1.0
  H  H298  1  0.18593000  0.46161000  0.24138000  1.0
  H  H299  1  0.23885000  0.46166000  0.18853000  1.0
  H  H300  1  0.13401000  0.50455000  0.27151000  1.0
  H  H301  1  0.08121000  0.50290000  0.32433000  1.0
  H  H302  1  0.17505000  0.50235000  0.41788000  1.0
  H  H303  1  0.22773000  0.50320000  0.36491000  1.0
  H  H304  1  0.77034000  0.00406000  0.13550000  1.0
  H  H305  1  0.82288000  0.00255000  0.08275000  1.0
  H  H306  1  0.91663000  0.00223000  0.17683000  1.0
  H  H307  1  0.86367000  0.00293000  0.22920000  1.0
  H  H308  1  0.81194000  0.04594000  0.25929000  1.0
  H  H309  1  0.75903000  0.04588000  0.31223000  1.0
  H  H310  1  0.68706000  0.96137000  0.24018000  1.0
  H  H311  1  0.73994000  0.96142000  0.18728000  1.0
  H  H312  1  0.63523000  0.00395000  0.27064000  1.0
  H  H313  1  0.58247000  0.00237000  0.32352000  1.0
  H  H314  1  0.67636000  0.00201000  0.41699000  1.0
  H  H315  1  0.72902000  0.00277000  0.36398000  1.0
  H  H316  1  0.63405000  0.50315000  0.77255000  1.0
  H  H317  1  0.58112000  0.50241000  0.82493000  1.0
  H  H318  1  0.67492000  0.50295000  0.91899000  1.0
  H  H319  1  0.72742000  0.50449000  0.86621000  1.0
  H  H320  1  0.75739000  0.46133000  0.81433000  1.0
  H  H321  1  0.81023000  0.46125000  0.76139000  1.0
  H  H322  1  0.73872000  0.54659000  0.68985000  1.0
  H  H323  1  0.68584000  0.54667000  0.74283000  1.0
  H  H324  1  0.76835000  0.50308000  0.63799000  1.0
  H  H325  1  0.82100000  0.50228000  0.58498000  1.0
  H  H326  1  0.91489000  0.50262000  0.67849000  1.0
  H  H327  1  0.86214000  0.50423000  0.73134000  1.0
  C  C328  1  0.09264000  0.09212000  0.99850000  1.0
  C  C329  1  0.90563000  0.09237000  0.00281000  1.0
  C  C330  1  0.00127000  0.09225000  0.90690000  1.0
  C  C331  1  0.99677000  0.09246000  0.09411000  1.0
  C  C332  1  0.90552000  0.90536000  0.99856000  1.0
  C  C333  1  0.09269000  0.90494000  0.00314000  1.0
  C  C334  1  0.90565000  0.99634000  0.90729000  1.0
  C  C335  1  0.90521000  0.00104000  0.09445000  1.0
  C  C336  1  0.09239000  0.99655000  0.09442000  1.0
  C  C337  1  0.09266000  0.00076000  0.90741000  1.0
  C  C338  1  0.99691000  0.90488000  0.90728000  1.0
  C  C339  1  0.00112000  0.90540000  0.09449000  1.0
  C  C340  1  0.59220000  0.59283000  0.99833000  1.0
  C  C341  1  0.40515000  0.59273000  0.00264000  1.0
  C  C342  1  0.50102000  0.59265000  0.90679000  1.0
  C  C343  1  0.49637000  0.59293000  0.09394000  1.0
  C  C344  1  0.40551000  0.40564000  0.99871000  1.0
  C  C345  1  0.59254000  0.40584000  0.00331000  1.0
  C  C346  1  0.40546000  0.49660000  0.90727000  1.0
  C  C347  1  0.40527000  0.50152000  0.09432000  1.0
  C  C348  1  0.59242000  0.49751000  0.09454000  1.0
  C  C349  1  0.59265000  0.50130000  0.90725000  1.0
  C  C350  1  0.49688000  0.40547000  0.90751000  1.0
  C  C351  1  0.50117000  0.40592000  0.09455000  1.0
  C  C352  1  0.09173000  0.59226000  0.49935000  1.0
  C  C353  1  0.90458000  0.59271000  0.50386000  1.0
  C  C354  1  0.00040000  0.59262000  0.40818000  1.0
  C  C355  1  0.99612000  0.59228000  0.59529000  1.0
  C  C356  1  0.90451000  0.40559000  0.49898000  1.0
  C  C357  1  0.09155000  0.40519000  0.50339000  1.0
  C  C358  1  0.90428000  0.49716000  0.40778000  1.0
  C  C359  1  0.90453000  0.50104000  0.59505000  1.0
  C  C360  1  0.09164000  0.49630000  0.59487000  1.0
  C  C361  1  0.09153000  0.50117000  0.40780000  1.0
  C  C362  1  0.99567000  0.40556000  0.40774000  1.0
  C  C363  1  0.00015000  0.40507000  0.59488000  1.0
  C  C364  1  0.59252000  0.09198000  0.49859000  1.0
  C  C365  1  0.40551000  0.09185000  0.50326000  1.0
  C  C366  1  0.50128000  0.09220000  0.40752000  1.0
  C  C367  1  0.49705000  0.09168000  0.59455000  1.0
  C  C368  1  0.40577000  0.90483000  0.49851000  1.0
  C  C369  1  0.59286000  0.90491000  0.50275000  1.0
  C  C370  1  0.40568000  0.99627000  0.40739000  1.0
  C  C371  1  0.40585000  0.00039000  0.59440000  1.0
  C  C372  1  0.59284000  0.99602000  0.59412000  1.0
  C  C373  1  0.59277000  0.00079000  0.40704000  1.0
  C  C374  1  0.49686000  0.90520000  0.40715000  1.0
  C  C375  1  0.50156000  0.90460000  0.59421000  1.0
  C  C376  1  0.18616000  0.18586000  0.99587000  1.0
  C  C377  1  0.19692000  0.14413000  0.99638000  1.0
  C  C378  1  0.16666000  0.11375000  0.99708000  1.0
  C  C379  1  0.12484000  0.12434000  0.99725000  1.0
  C  C380  1  0.11412000  0.16612000  0.99646000  1.0
  C  C381  1  0.14439000  0.19646000  0.99580000  1.0
  C  C382  1  0.21834000  0.21821000  0.99571000  1.0
  C  C383  1  0.21360000  0.25396000  0.01932000  1.0
  C  C384  1  0.24387000  0.28432000  0.01934000  1.0
  C  C385  1  0.27965000  0.27970000  0.99576000  1.0
  C  C386  1  0.28439000  0.24396000  0.97212000  1.0
  C  C387  1  0.25411000  0.21359000  0.97210000  1.0
  C  C388  1  0.31193000  0.31196000  0.99599000  1.0
  C  C389  1  0.35368000  0.30128000  0.99651000  1.0
  C  C390  1  0.38400000  0.33160000  0.99725000  1.0
  C  C391  1  0.37333000  0.37340000  0.99747000  1.0
  C  C392  1  0.33153000  0.38405000  0.99669000  1.0
  C  C393  1  0.30124000  0.35371000  0.99598000  1.0
  C  C394  1  0.18553000  0.68577000  0.49649000  1.0
  C  C395  1  0.19615000  0.64400000  0.49678000  1.0
  C  C396  1  0.16579000  0.61371000  0.49758000  1.0
  C  C397  1  0.12400000  0.62442000  0.49808000  1.0
  C  C398  1  0.11342000  0.66624000  0.49754000  1.0
  C  C399  1  0.14379000  0.69650000  0.49678000  1.0
  C  C400  1  0.21785000  0.71802000  0.49617000  1.0
  C  C401  1  0.21341000  0.75376000  0.51986000  1.0
  C  C402  1  0.24382000  0.78398000  0.51976000  1.0
  C  C403  1  0.27946000  0.77925000  0.49597000  1.0
  C  C404  1  0.28391000  0.74352000  0.47226000  1.0
  C  C405  1  0.25348000  0.71328000  0.47235000  1.0
  C  C406  1  0.31187000  0.81140000  0.49604000  1.0
  C  C407  1  0.35360000  0.80059000  0.49626000  1.0
  C  C408  1  0.38403000  0.83082000  0.49689000  1.0
  C  C409  1  0.37350000  0.87266000  0.49729000  1.0
  C  C410  1  0.33173000  0.88342000  0.49678000  1.0
  C  C411  1  0.30134000  0.85319000  0.49619000  1.0
  C  C412  1  0.81166000  0.81212000  0.99555000  1.0
  C  C413  1  0.80112000  0.85390000  0.99567000  1.0
  C  C414  1  0.83152000  0.88409000  0.99647000  1.0
  C  C415  1  0.87326000  0.87327000  0.99722000  1.0
  C  C416  1  0.88379000  0.83144000  0.99685000  1.0
  C  C417  1  0.85336000  0.80126000  0.99602000  1.0
  C  C418  1  0.77928000  0.78003000  0.99524000  1.0
  C  C419  1  0.78380000  0.74445000  0.97135000  1.0
  C  C420  1  0.75342000  0.71419000  0.97130000  1.0
  C  C421  1  0.71781000  0.71881000  0.99512000  1.0
  C  C422  1  0.71326000  0.75443000  0.01895000  1.0
  C  C423  1  0.74363000  0.78467000  0.01901000  1.0
  C  C424  1  0.68562000  0.68652000  0.99536000  1.0
  C  C425  1  0.64386000  0.69716000  0.99546000  1.0
  C  C426  1  0.61360000  0.66682000  0.99622000  1.0
  C  C427  1  0.62434000  0.62506000  0.99697000  1.0
  C  C428  1  0.66615000  0.61445000  0.99663000  1.0
  C  C429  1  0.69639000  0.64480000  0.99583000  1.0
  C  C430  1  0.81096000  0.31212000  0.49581000  1.0
  C  C431  1  0.80026000  0.35385000  0.49610000  1.0
  C  C432  1  0.83055000  0.38415000  0.49695000  1.0
  C  C433  1  0.87233000  0.37345000  0.49758000  1.0
  C  C434  1  0.88299000  0.33165000  0.49705000  1.0
  C  C435  1  0.85268000  0.30138000  0.49617000  1.0
  C  C436  1  0.77873000  0.27990000  0.49549000  1.0
  C  C437  1  0.78333000  0.24443000  0.47145000  1.0
  C  C438  1  0.75314000  0.21401000  0.47145000  1.0
  C  C439  1  0.71763000  0.21835000  0.49548000  1.0
  C  C440  1  0.71300000  0.25386000  0.51946000  1.0
  C  C441  1  0.74319000  0.28427000  0.51947000  1.0
  C  C442  1  0.68560000  0.18593000  0.49572000  1.0
  C  C443  1  0.64382000  0.19643000  0.49594000  1.0
  C  C444  1  0.61368000  0.16600000  0.49669000  1.0
  C  C445  1  0.62457000  0.12426000  0.49729000  1.0
  C  C446  1  0.66641000  0.11379000  0.49682000  1.0
  C  C447  1  0.69654000  0.14426000  0.49603000  1.0
  C  C448  1  0.81220000  0.18625000  0.00559000  1.0
  C  C449  1  0.85399000  0.19681000  0.00528000  1.0
  C  C450  1  0.88423000  0.16642000  0.00453000  1.0
  C  C451  1  0.87347000  0.12465000  0.00404000  1.0
  C  C452  1  0.83164000  0.11411000  0.00456000  1.0
  C  C453  1  0.80141000  0.14452000  0.00534000  1.0
  C  C454  1  0.78003000  0.21863000  0.00591000  1.0
  C  C455  1  0.74442000  0.21407000  0.02978000  1.0
  C  C456  1  0.71412000  0.24443000  0.02988000  1.0
  C  C457  1  0.71867000  0.28011000  0.00610000  1.0
  C  C458  1  0.75431000  0.28468000  0.98228000  1.0
  C  C459  1  0.78460000  0.25433000  0.98219000  1.0
  C  C460  1  0.68634000  0.31233000  0.00595000  1.0
  C  C461  1  0.69694000  0.35410000  0.00569000  1.0
  C  C462  1  0.66658000  0.38438000  0.00504000  1.0
  C  C463  1  0.62480000  0.37366000  0.00457000  1.0
  C  C464  1  0.61422000  0.33184000  0.00506000  1.0
  C  C465  1  0.64460000  0.30158000  0.00575000  1.0
  C  C466  1  0.81263000  0.68519000  0.50631000  1.0
  C  C467  1  0.85440000  0.69570000  0.50621000  1.0
  C  C468  1  0.88467000  0.66533000  0.50562000  1.0
  C  C469  1  0.87404000  0.62340000  0.50503000  1.0
  C  C470  1  0.83205000  0.61302000  0.50539000  1.0
  C  C471  1  0.80185000  0.64348000  0.50603000  1.0
  C  C472  1  0.78044000  0.71760000  0.50639000  1.0
  C  C473  1  0.74463000  0.71305000  0.52996000  1.0
  C  C474  1  0.71431000  0.74341000  0.52980000  1.0
  C  C475  1  0.71904000  0.77909000  0.50606000  1.0
  C  C476  1  0.75488000  0.78365000  0.48254000  1.0
  C  C477  1  0.78518000  0.75330000  0.48270000  1.0
  C  C478  1  0.68668000  0.81133000  0.50566000  1.0
  C  C479  1  0.69728000  0.85312000  0.50541000  1.0
  C  C480  1  0.66692000  0.88341000  0.50461000  1.0
  C  C481  1  0.62513000  0.87271000  0.50400000  1.0
  C  C482  1  0.61455000  0.83088000  0.50444000  1.0
  C  C483  1  0.64494000  0.80061000  0.50528000  1.0
  C  C484  1  0.18520000  0.31132000  0.50591000  1.0
  C  C485  1  0.19589000  0.35308000  0.50566000  1.0
  C  C486  1  0.16560000  0.38347000  0.50498000  1.0
  C  C487  1  0.12377000  0.37290000  0.50455000  1.0
  C  C488  1  0.11309000  0.33110000  0.50503000  1.0
  C  C489  1  0.14340000  0.30073000  0.50568000  1.0
  C  C490  1  0.21747000  0.27895000  0.50615000  1.0
  C  C491  1  0.21285000  0.24312000  0.48261000  1.0
  C  C492  1  0.24322000  0.21282000  0.48261000  1.0
  C  C493  1  0.27904000  0.21754000  0.50614000  1.0
  C  C494  1  0.28365000  0.25334000  0.52973000  1.0
  C  C495  1  0.25327000  0.28365000  0.52973000  1.0
  C  C496  1  0.31148000  0.18534000  0.50592000  1.0
  C  C497  1  0.35323000  0.19611000  0.50566000  1.0
  C  C498  1  0.38367000  0.16588000  0.50495000  1.0
  C  C499  1  0.37318000  0.12402000  0.50451000  1.0
  C  C500  1  0.33139000  0.11328000  0.50503000  1.0
  C  C501  1  0.30098000  0.14352000  0.50570000  1.0
  C  C502  1  0.18487000  0.81251000  0.00553000  1.0
  C  C503  1  0.19555000  0.85426000  0.00531000  1.0
  C  C504  1  0.16529000  0.88469000  0.00468000  1.0
  C  C505  1  0.12329000  0.87427000  0.00426000  1.0
  C  C506  1  0.11276000  0.83231000  0.00477000  1.0
  C  C507  1  0.14309000  0.80196000  0.00537000  1.0
  C  C508  1  0.21716000  0.78010000  0.00566000  1.0
  C  C509  1  0.21243000  0.74424000  0.98218000  1.0
  C  C510  1  0.24279000  0.71391000  0.98210000  1.0
  C  C511  1  0.27871000  0.71861000  0.00549000  1.0
  C  C512  1  0.28343000  0.75445000  0.02901000  1.0
  C  C513  1  0.25306000  0.78479000  0.02909000  1.0
  C  C514  1  0.31114000  0.68635000  0.00519000  1.0
  C  C515  1  0.35290000  0.69707000  0.00489000  1.0
  C  C516  1  0.38333000  0.66680000  0.00419000  1.0
  C  C517  1  0.37281000  0.62495000  0.00379000  1.0
  C  C518  1  0.33101000  0.61425000  0.00431000  1.0
  C  C519  1  0.30061000  0.64454000  0.00497000  1.0
  C  C520  1  0.99372000  0.18633000  0.18759000  1.0
  C  C521  1  0.99406000  0.19691000  0.14581000  1.0
  C  C522  1  0.99489000  0.16654000  0.11554000  1.0
  C  C523  1  0.99545000  0.12475000  0.12627000  1.0
  C  C524  1  0.99490000  0.11420000  0.16810000  1.0
  C  C525  1  0.99404000  0.14460000  0.19835000  1.0
  C  C526  1  0.99330000  0.21869000  0.21981000  1.0
  C  C527  1  0.96948000  0.21401000  0.25544000  1.0
  C  C528  1  0.96934000  0.24431000  0.28581000  1.0
  C  C529  1  0.99302000  0.28005000  0.28132000  1.0
  C  C530  1  0.01678000  0.28476000  0.24566000  1.0
  C  C531  1  0.01692000  0.25447000  0.21530000  1.0
  C  C532  1  0.99313000  0.31221000  0.31374000  1.0
  C  C533  1  0.99330000  0.35401000  0.30323000  1.0
  C  C534  1  0.99391000  0.38423000  0.33365000  1.0
  C  C535  1  0.99443000  0.37343000  0.37542000  1.0
  C  C536  1  0.99401000  0.33159000  0.38591000  1.0
  C  C537  1  0.99336000  0.30138000  0.35546000  1.0
  C  C538  1  0.49427000  0.31140000  0.81423000  1.0
  C  C539  1  0.49455000  0.35312000  0.80337000  1.0
  C  C540  1  0.49526000  0.38359000  0.83355000  1.0
  C  C541  1  0.49568000  0.37313000  0.87541000  1.0
  C  C542  1  0.49515000  0.33137000  0.88623000  1.0
  C  C543  1  0.49448000  0.30092000  0.85603000  1.0
  C  C544  1  0.49403000  0.27896000  0.78209000  1.0
  C  C545  1  0.51771000  0.24324000  0.78678000  1.0
  C  C546  1  0.51772000  0.21286000  0.75651000  1.0
  C  C547  1  0.49405000  0.21741000  0.72077000  1.0
  C  C548  1  0.47030000  0.25309000  0.71611000  1.0
  C  C549  1  0.47029000  0.28348000  0.74639000  1.0
  C  C550  1  0.49433000  0.18518000  0.68842000  1.0
  C  C551  1  0.49461000  0.19592000  0.64668000  1.0
  C  C552  1  0.49536000  0.16567000  0.61629000  1.0
  C  C553  1  0.49583000  0.12384000  0.62685000  1.0
  C  C554  1  0.49531000  0.11312000  0.66863000  1.0
  C  C555  1  0.49460000  0.14339000  0.69900000  1.0
  C  C556  1  0.99421000  0.81229000  0.81527000  1.0
  C  C557  1  0.99451000  0.85402000  0.80451000  1.0
  C  C558  1  0.99527000  0.88450000  0.83471000  1.0
  C  C559  1  0.99574000  0.87416000  0.87672000  1.0
  C  C560  1  0.99517000  0.83222000  0.88734000  1.0
  C  C561  1  0.99445000  0.80182000  0.85706000  1.0
  C  C562  1  0.99389000  0.77983000  0.78305000  1.0
  C  C563  1  0.01731000  0.74392000  0.78777000  1.0
  C  C564  1  0.01721000  0.71353000  0.75748000  1.0
  C  C565  1  0.99370000  0.71822000  0.72163000  1.0
  C  C566  1  0.97023000  0.75409000  0.71693000  1.0
  C  C567  1  0.97033000  0.78449000  0.74724000  1.0
  C  C568  1  0.99384000  0.68593000  0.68924000  1.0
  C  C569  1  0.99404000  0.69662000  0.64748000  1.0
  C  C570  1  0.99463000  0.66633000  0.61708000  1.0
  C  C571  1  0.99503000  0.62449000  0.62762000  1.0
  C  C572  1  0.99460000  0.61381000  0.66942000  1.0
  C  C573  1  0.99404000  0.64412000  0.69980000  1.0
  C  C574  1  0.49327000  0.68667000  0.18720000  1.0
  C  C575  1  0.49342000  0.69728000  0.14545000  1.0
  C  C576  1  0.49423000  0.66693000  0.11522000  1.0
  C  C577  1  0.49497000  0.62518000  0.12601000  1.0
  C  C578  1  0.49458000  0.61459000  0.16783000  1.0
  C  C579  1  0.49373000  0.64497000  0.19803000  1.0
  C  C580  1  0.49301000  0.71896000  0.21934000  1.0
  C  C581  1  0.46907000  0.71439000  0.25489000  1.0
  C  C582  1  0.46916000  0.74463000  0.28527000  1.0
  C  C583  1  0.49318000  0.78012000  0.28080000  1.0
  C  C584  1  0.51704000  0.78472000  0.24521000  1.0
  C  C585  1  0.51696000  0.75450000  0.21485000  1.0
  C  C586  1  0.49356000  0.81215000  0.31320000  1.0
  C  C587  1  0.49373000  0.85393000  0.30270000  1.0
  C  C588  1  0.49463000  0.88407000  0.33313000  1.0
  C  C589  1  0.49542000  0.87317000  0.37486000  1.0
  C  C590  1  0.49501000  0.83133000  0.38534000  1.0
  C  C591  1  0.49408000  0.80121000  0.35487000  1.0
  C  C592  1  0.00368000  0.81213000  0.18850000  1.0
  C  C593  1  0.00341000  0.80127000  0.14679000  1.0
  C  C594  1  0.00273000  0.83145000  0.11633000  1.0
  C  C595  1  0.00232000  0.87330000  0.12681000  1.0
  C  C596  1  0.00285000  0.88412000  0.16856000  1.0
  C  C597  1  0.00349000  0.85393000  0.19899000  1.0
  C  C598  1  0.00386000  0.78001000  0.22093000  1.0
  C  C599  1  0.98009000  0.78471000  0.25659000  1.0
  C  C600  1  0.98004000  0.75446000  0.28698000  1.0
  C  C601  1  0.00373000  0.71874000  0.28248000  1.0
  C  C602  1  0.02756000  0.71406000  0.24686000  1.0
  C  C603  1  0.02762000  0.74433000  0.21646000  1.0
  C  C604  1  0.00338000  0.68642000  0.31470000  1.0
  C  C605  1  0.00302000  0.64469000  0.30395000  1.0
  C  C606  1  0.00219000  0.61431000  0.33421000  1.0
  C  C607  1  0.00173000  0.62489000  0.37603000  1.0
  C  C608  1  0.00233000  0.66666667  0.38676000  1.0
  C  C609  1  0.00312000  0.69703000  0.35648000  1.0
  C  C610  1  0.50377000  0.68460000  0.81416000  1.0
  C  C611  1  0.50339000  0.69538000  0.85588000  1.0
  C  C612  1  0.50261000  0.66520000  0.88637000  1.0
  C  C613  1  0.50220000  0.62318000  0.87605000  1.0
  C  C614  1  0.50286000  0.61254000  0.83412000  1.0
  C  C615  1  0.50360000  0.64280000  0.80371000  1.0
  C  C616  1  0.50410000  0.71680000  0.78169000  1.0
  C  C617  1  0.48073000  0.71205000  0.74576000  1.0
  C  C618  1  0.48080000  0.74235000  0.71538000  1.0
  C  C619  1  0.50426000  0.77823000  0.72010000  1.0
  C  C620  1  0.52769000  0.78295000  0.75599000  1.0
  C  C621  1  0.52761000  0.75264000  0.78638000  1.0
  C  C622  1  0.50408000  0.81063000  0.68783000  1.0
  C  C623  1  0.50378000  0.85240000  0.69854000  1.0
  C  C624  1  0.50312000  0.88281000  0.66827000  1.0
  C  C625  1  0.50276000  0.87228000  0.62642000  1.0
  C  C626  1  0.50331000  0.83048000  0.61573000  1.0
  C  C627  1  0.50393000  0.80009000  0.64602000  1.0
  C  C628  1  0.50395000  0.31244000  0.18841000  1.0
  C  C629  1  0.50368000  0.30168000  0.14668000  1.0
  C  C630  1  0.50292000  0.33193000  0.11628000  1.0
  C  C631  1  0.50243000  0.37376000  0.12684000  1.0
  C  C632  1  0.50296000  0.38449000  0.16863000  1.0
  C  C633  1  0.50368000  0.35422000  0.19900000  1.0
  C  C634  1  0.50422000  0.28022000  0.22076000  1.0
  C  C635  1  0.48052000  0.28477000  0.25648000  1.0
  C  C636  1  0.48052000  0.25440000  0.28676000  1.0
  C  C637  1  0.50421000  0.21869000  0.28210000  1.0
  C  C638  1  0.52798000  0.21416000  0.24641000  1.0
  C  C639  1  0.52798000  0.24454000  0.21613000  1.0
  C  C640  1  0.50395000  0.18626000  0.31423000  1.0
  C  C641  1  0.50367000  0.14454000  0.30338000  1.0
  C  C642  1  0.50294000  0.11408000  0.33357000  1.0
  C  C643  1  0.50250000  0.12455000  0.37542000  1.0
  C  C644  1  0.50302000  0.16631000  0.38624000  1.0
  C  C645  1  0.50372000  0.19674000  0.35604000  1.0
  C  C646  1  0.00352000  0.18444000  0.81441000  1.0
  C  C647  1  0.00333000  0.19511000  0.85617000  1.0
  C  C648  1  0.00275000  0.16485000  0.88660000  1.0
  C  C649  1  0.00234000  0.12285000  0.87620000  1.0
  C  C650  1  0.00281000  0.11231000  0.83423000  1.0
  C  C651  1  0.00335000  0.14265000  0.80388000  1.0
  C  C652  1  0.00360000  0.21675000  0.78201000  1.0
  C  C653  1  0.98012000  0.21202000  0.74615000  1.0
  C  C654  1  0.97996000  0.24243000  0.71585000  1.0
  C  C655  1  0.00327000  0.27840000  0.72058000  1.0
  C  C656  1  0.02681000  0.28310000  0.75641000  1.0
  C  C657  1  0.02698000  0.25269000  0.78672000  1.0
  C  C658  1  0.00289000  0.31089000  0.68837000  1.0
  C  C659  1  0.00260000  0.35264000  0.69915000  1.0
  C  C660  1  0.00182000  0.38312000  0.66892000  1.0
  C  C661  1  0.00135000  0.37268000  0.62705000  1.0
  C  C662  1  0.00186000  0.33089000  0.61629000  1.0
  C  C663  1  0.00260000  0.30044000  0.64653000  1.0
  C  C664  1  0.18584000  0.99370000  0.18819000  1.0
  C  C665  1  0.19660000  0.99400000  0.14647000  1.0
  C  C666  1  0.16636000  0.99479000  0.11609000  1.0
  C  C667  1  0.12454000  0.99527000  0.12668000  1.0
  C  C668  1  0.11380000  0.99471000  0.16845000  1.0
  C  C669  1  0.14407000  0.99396000  0.19880000  1.0
  C  C670  1  0.21803000  0.99341000  0.22052000  1.0
  C  C671  1  0.21351000  0.01720000  0.25618000  1.0
  C  C672  1  0.24385000  0.01717000  0.28646000  1.0
  C  C673  1  0.27948000  0.99335000  0.28185000  1.0
  C  C674  1  0.28399000  0.96951000  0.24622000  1.0
  C  C675  1  0.25363000  0.96954000  0.21593000  1.0
  C  C676  1  0.31184000  0.99356000  0.31400000  1.0
  C  C677  1  0.35356000  0.99386000  0.30320000  1.0
  C  C678  1  0.38397000  0.99459000  0.33342000  1.0
  C  C679  1  0.37342000  0.99501000  0.37525000  1.0
  C  C680  1  0.33165000  0.99443000  0.38602000  1.0
  C  C681  1  0.30127000  0.99374000  0.35578000  1.0
  C  C682  1  0.31161000  0.49356000  0.81392000  1.0
  C  C683  1  0.30106000  0.49367000  0.85570000  1.0
  C  C684  1  0.33145000  0.49445000  0.88591000  1.0
  C  C685  1  0.37321000  0.49520000  0.87512000  1.0
  C  C686  1  0.38375000  0.49484000  0.83329000  1.0
  C  C687  1  0.35332000  0.49401000  0.80308000  1.0
  C  C688  1  0.27921000  0.49330000  0.78180000  1.0
  C  C689  1  0.28373000  0.46952000  0.74614000  1.0
  C  C690  1  0.25330000  0.46946000  0.71591000  1.0
  C  C691  1  0.21763000  0.49320000  0.72061000  1.0
  C  C692  1  0.21311000  0.51695000  0.75629000  1.0
  C  C693  1  0.24351000  0.51700000  0.78650000  1.0
  C  C694  1  0.18535000  0.49339000  0.68837000  1.0
  C  C695  1  0.14361000  0.49351000  0.69910000  1.0
  C  C696  1  0.11325000  0.49425000  0.66883000  1.0
  C  C697  1  0.12387000  0.49494000  0.62703000  1.0
  C  C698  1  0.16567000  0.49458000  0.61633000  1.0
  C  C699  1  0.19600000  0.49380000  0.64662000  1.0
  C  C700  1  0.81205000  0.99336000  0.81375000  1.0
  C  C701  1  0.80138000  0.99349000  0.85550000  1.0
  C  C702  1  0.83168000  0.99427000  0.88580000  1.0
  C  C703  1  0.87346000  0.99498000  0.87511000  1.0
  C  C704  1  0.88411000  0.99460000  0.83331000  1.0
  C  C705  1  0.85378000  0.99379000  0.80303000  1.0
  C  C706  1  0.77977000  0.99310000  0.78154000  1.0
  C  C707  1  0.78440000  0.96926000  0.74593000  1.0
  C  C708  1  0.75411000  0.96924000  0.71558000  1.0
  C  C709  1  0.71847000  0.99306000  0.72012000  1.0
  C  C710  1  0.71384000  0.01686000  0.75575000  1.0
  C  C711  1  0.74411000  0.01688000  0.78608000  1.0
  C  C712  1  0.68631000  0.99324000  0.68779000  1.0
  C  C713  1  0.64456000  0.99330000  0.69842000  1.0
  C  C714  1  0.61429000  0.99401000  0.66809000  1.0
  C  C715  1  0.62502000  0.99473000  0.62631000  1.0
  C  C716  1  0.66683000  0.99441000  0.61570000  1.0
  C  C717  1  0.69708000  0.99366000  0.64607000  1.0
  C  C718  1  0.68598000  0.49524000  0.18873000  1.0
  C  C719  1  0.69674000  0.49546000  0.14697000  1.0
  C  C720  1  0.66651000  0.49607000  0.11648000  1.0
  C  C721  1  0.62463000  0.49646000  0.12692000  1.0
  C  C722  1  0.61389000  0.49603000  0.16872000  1.0
  C  C723  1  0.64414000  0.49545000  0.19917000  1.0
  C  C724  1  0.71820000  0.49501000  0.22125000  1.0
  C  C725  1  0.71337000  0.51831000  0.25722000  1.0
  C  C726  1  0.74363000  0.51824000  0.28767000  1.0
  C  C727  1  0.77958000  0.49487000  0.28300000  1.0
  C  C728  1  0.78439000  0.47152000  0.24705000  1.0
  C  C729  1  0.75412000  0.47159000  0.21659000  1.0
  C  C730  1  0.81193000  0.49501000  0.31539000  1.0
  C  C731  1  0.85371000  0.49520000  0.30481000  1.0
  C  C732  1  0.88409000  0.49577000  0.33513000  1.0
  C  C733  1  0.87362000  0.49617000  0.37712000  1.0
  C  C734  1  0.83163000  0.49573000  0.38756000  1.0
  C  C735  1  0.80133000  0.49520000  0.35716000  1.0
  C  C736  1  0.18649000  0.00338000  0.81403000  1.0
  C  C737  1  0.14477000  0.00307000  0.80323000  1.0
  C  C738  1  0.11436000  0.00236000  0.83345000  1.0
  C  C739  1  0.12492000  0.00197000  0.87528000  1.0
  C  C740  1  0.16669000  0.00254000  0.88605000  1.0
  C  C741  1  0.19706000  0.00321000  0.85580000  1.0
  C  C742  1  0.21884000  0.00357000  0.78187000  1.0
  C  C743  1  0.25446000  0.97975000  0.78648000  1.0
  C  C744  1  0.28478000  0.97970000  0.75618000  1.0
  C  C745  1  0.28024000  0.00347000  0.72051000  1.0
  C  C746  1  0.24464000  0.02734000  0.71592000  1.0
  C  C747  1  0.21431000  0.02739000  0.74623000  1.0
  C  C748  1  0.31242000  0.00317000  0.68818000  1.0
  C  C749  1  0.30164000  0.00282000  0.64646000  1.0
  C  C750  1  0.33188000  0.00205000  0.61607000  1.0
  C  C751  1  0.37370000  0.00163000  0.62665000  1.0
  C  C752  1  0.38445000  0.00223000  0.66843000  1.0
  C  C753  1  0.35419000  0.00297000  0.69878000  1.0
  C  C754  1  0.31133000  0.50406000  0.18788000  1.0
  C  C755  1  0.30079000  0.50389000  0.14608000  1.0
  C  C756  1  0.33118000  0.50325000  0.11581000  1.0
  C  C757  1  0.37297000  0.50273000  0.12652000  1.0
  C  C758  1  0.38350000  0.50313000  0.16836000  1.0
  C  C759  1  0.35308000  0.50380000  0.19862000  1.0
  C  C760  1  0.27892000  0.50424000  0.22011000  1.0
  C  C761  1  0.28355000  0.52780000  0.25593000  1.0
  C  C762  1  0.25319000  0.52776000  0.28625000  1.0
  C  C763  1  0.21740000  0.50417000  0.28155000  1.0
  C  C764  1  0.21276000  0.48066000  0.24570000  1.0
  C  C765  1  0.24311000  0.48070000  0.21539000  1.0
  C  C766  1  0.18514000  0.50390000  0.31392000  1.0
  C  C767  1  0.14335000  0.50371000  0.30334000  1.0
  C  C768  1  0.11305000  0.50300000  0.33371000  1.0
  C  C769  1  0.12374000  0.50242000  0.37551000  1.0
  C  C770  1  0.16557000  0.50283000  0.38607000  1.0
  C  C771  1  0.19585000  0.50358000  0.35568000  1.0
  C  C772  1  0.81269000  0.00350000  0.18665000  1.0
  C  C773  1  0.80218000  0.00329000  0.14486000  1.0
  C  C774  1  0.83254000  0.00266000  0.11452000  1.0
  C  C775  1  0.87451000  0.00217000  0.12506000  1.0
  C  C776  1  0.88489000  0.00262000  0.16706000  1.0
  C  C777  1  0.85445000  0.00329000  0.19732000  1.0
  C  C778  1  0.78026000  0.00370000  0.21895000  1.0
  C  C779  1  0.78499000  0.02708000  0.25488000  1.0
  C  C780  1  0.75463000  0.02705000  0.28526000  1.0
  C  C781  1  0.71872000  0.00363000  0.28053000  1.0
  C  C782  1  0.71397000  0.98030000  0.24457000  1.0
  C  C783  1  0.74432000  0.98033000  0.21420000  1.0
  C  C784  1  0.68644000  0.00339000  0.31298000  1.0
  C  C785  1  0.64461000  0.00316000  0.30247000  1.0
  C  C786  1  0.61432000  0.00250000  0.33288000  1.0
  C  C787  1  0.62500000  0.00200000  0.37469000  1.0
  C  C788  1  0.66686000  0.00243000  0.38519000  1.0
  C  C789  1  0.69714000  0.00313000  0.35475000  1.0
  C  C790  1  0.68500000  0.50383000  0.81513000  1.0
  C  C791  1  0.64327000  0.50354000  0.80444000  1.0
  C  C792  1  0.61286000  0.50285000  0.83469000  1.0
  C  C793  1  0.62330000  0.50244000  0.87667000  1.0
  C  C794  1  0.66525000  0.50302000  0.88722000  1.0
  C  C795  1  0.69558000  0.50367000  0.85689000  1.0
  C  C796  1  0.71735000  0.50402000  0.78287000  1.0
  C  C797  1  0.75312000  0.48040000  0.78751000  1.0
  C  C798  1  0.78343000  0.48035000  0.75715000  1.0
  C  C799  1  0.77876000  0.50393000  0.72135000  1.0
  C  C800  1  0.74301000  0.52759000  0.71673000  1.0
  C  C801  1  0.71270000  0.52763000  0.74710000  1.0
  C  C802  1  0.81098000  0.50368000  0.68895000  1.0
  C  C803  1  0.80023000  0.50342000  0.64720000  1.0
  C  C804  1  0.83049000  0.50271000  0.61679000  1.0
  C  C805  1  0.87233000  0.50225000  0.62733000  1.0
  C  C806  1  0.88304000  0.50276000  0.66912000  1.0
  C  C807  1  0.85277000  0.50344000  0.69950000  1.0
  O  O808  1  0.10460000  0.05413000  0.99937000  1.0
  O  O809  1  0.89361000  0.05439000  0.00215000  1.0
  O  O810  1  0.00057000  0.10414000  0.94496000  1.0
  O  O811  1  0.99762000  0.10435000  0.05610000  1.0
  O  O812  1  0.99744000  0.05450000  0.10617000  1.0
  O  O813  1  0.00057000  0.05414000  0.89515000  1.0
  O  O814  1  0.94362000  0.10429000  0.00200000  1.0
  O  O815  1  0.05467000  0.10413000  0.99914000  1.0
  O  O816  1  0.96183000  0.03608000  0.03791000  1.0
  O  O817  1  0.03632000  0.03580000  0.96357000  1.0
  O  O818  1  0.96207000  0.03573000  0.96365000  1.0
  O  O819  1  0.03605000  0.03579000  0.03779000  1.0
  O  O820  1  0.89358000  0.94335000  0.99930000  1.0
  O  O821  1  0.10453000  0.94302000  0.00240000  1.0
  O  O822  1  0.94362000  0.99704000  0.89531000  1.0
  O  O823  1  0.94328000  0.00035000  0.10631000  1.0
  O  O824  1  0.05439000  0.99741000  0.10635000  1.0
  O  O825  1  0.05470000  0.00002000  0.89537000  1.0
  O  O826  1  0.99760000  0.89313000  0.94538000  1.0
  O  O827  1  0.00043000  0.89334000  0.05652000  1.0
  O  O828  1  0.99767000  0.94294000  0.89537000  1.0
  O  O829  1  0.00034000  0.94341000  0.10638000  1.0
  O  O830  1  0.89365000  0.99723000  0.94526000  1.0
  O  O831  1  0.10458000  0.00002000  0.94540000  1.0
  O  O832  1  0.10443000  0.99720000  0.05646000  1.0
  O  O833  1  0.89345000  0.00031000  0.05635000  1.0
  O  O834  1  0.94348000  0.89332000  0.99938000  1.0
  O  O835  1  0.05460000  0.89316000  0.00243000  1.0
  O  O836  1  0.03615000  0.96158000  0.03811000  1.0
  O  O837  1  0.96190000  0.96154000  0.96369000  1.0
  O  O838  1  0.03613000  0.96157000  0.96382000  1.0
  O  O839  1  0.96195000  0.96177000  0.03788000  1.0
  O  O840  1  0.60426000  0.55488000  0.99924000  1.0
  O  O841  1  0.39325000  0.55471000  0.00204000  1.0
  O  O842  1  0.50021000  0.60459000  0.94483000  1.0
  O  O843  1  0.49714000  0.60482000  0.05593000  1.0
  O  O844  1  0.49720000  0.55501000  0.10606000  1.0
  O  O845  1  0.50038000  0.55454000  0.89510000  1.0
  O  O846  1  0.44313000  0.60474000  0.00185000  1.0
  O  O847  1  0.55421000  0.60476000  0.99899000  1.0
  O  O848  1  0.46163000  0.53648000  0.03786000  1.0
  O  O849  1  0.53607000  0.53637000  0.96353000  1.0
  O  O850  1  0.46179000  0.53614000  0.96357000  1.0
  O  O851  1  0.53581000  0.53642000  0.03774000  1.0
  O  O852  1  0.39349000  0.44361000  0.99939000  1.0
  O  O853  1  0.60447000  0.44384000  0.00251000  1.0
  O  O854  1  0.44344000  0.49738000  0.89527000  1.0
  O  O855  1  0.44326000  0.50084000  0.10631000  1.0
  O  O856  1  0.55439000  0.49820000  0.10643000  1.0
  O  O857  1  0.55459000  0.50052000  0.89537000  1.0
  O  O858  1  0.49760000  0.39362000  0.94554000  1.0
  O  O859  1  0.50045000  0.39387000  0.05659000  1.0
  O  O860  1  0.49760000  0.44343000  0.89542000  1.0
  O  O861  1  0.50038000  0.44393000  0.10644000  1.0
  O  O862  1  0.39348000  0.49746000  0.94524000  1.0
  O  O863  1  0.60443000  0.50067000  0.94534000  1.0
  O  O864  1  0.60442000  0.49813000  0.05654000  1.0
  O  O865  1  0.39334000  0.50072000  0.05631000  1.0
  O  O866  1  0.44350000  0.39370000  0.99953000  1.0
  O  O867  1  0.55457000  0.39382000  0.00256000  1.0
  O  O868  1  0.53613000  0.46217000  0.03815000  1.0
  O  O869  1  0.46181000  0.46196000  0.96371000  1.0
  O  O870  1  0.53603000  0.46216000  0.96389000  1.0
  O  O871  1  0.46186000  0.46225000  0.03792000  1.0
  O  O872  1  0.10365000  0.55425000  0.50000000  1.0
  O  O873  1  0.89266000  0.55467000  0.50306000  1.0
  O  O874  1  0.99968000  0.60451000  0.44620000  1.0
  O  O875  1  0.99683000  0.60431000  0.55731000  1.0
  O  O876  1  0.99679000  0.55424000  0.60717000  1.0
  O  O877  1  0.99957000  0.55467000  0.39611000  1.0
  O  O878  1  0.94267000  0.60447000  0.50320000  1.0
  O  O879  1  0.05376000  0.60430000  0.50020000  1.0
  O  O880  1  0.96094000  0.53607000  0.53879000  1.0
  O  O881  1  0.03525000  0.53609000  0.46434000  1.0
  O  O882  1  0.96105000  0.53611000  0.46451000  1.0
  O  O883  1  0.03518000  0.53577000  0.53857000  1.0
  O  O884  1  0.89256000  0.44357000  0.49983000  1.0
  O  O885  1  0.10355000  0.44318000  0.50269000  1.0
  O  O886  1  0.94236000  0.49781000  0.39595000  1.0
  O  O887  1  0.94253000  0.50021000  0.60700000  1.0
  O  O888  1  0.05367000  0.49707000  0.60690000  1.0
  O  O889  1  0.05351000  0.50050000  0.39588000  1.0
  O  O890  1  0.99646000  0.39350000  0.44571000  1.0
  O  O891  1  0.99941000  0.39322000  0.55683000  1.0
  O  O892  1  0.99640000  0.44358000  0.39585000  1.0
  O  O893  1  0.99945000  0.44305000  0.60693000  1.0
  O  O894  1  0.89248000  0.49781000  0.44588000  1.0
  O  O895  1  0.10353000  0.50032000  0.44578000  1.0
  O  O896  1  0.10359000  0.49713000  0.55688000  1.0
  O  O897  1  0.89255000  0.50041000  0.55705000  1.0
  O  O898  1  0.94246000  0.39354000  0.49975000  1.0
  O  O899  1  0.05353000  0.39328000  0.50268000  1.0
  O  O900  1  0.03524000  0.46157000  0.53857000  1.0
  O  O901  1  0.96081000  0.46185000  0.46423000  1.0
  O  O902  1  0.03504000  0.46187000  0.46429000  1.0
  O  O903  1  0.96100000  0.46185000  0.53843000  1.0
  O  O904  1  0.60460000  0.05403000  0.49923000  1.0
  O  O905  1  0.39362000  0.05383000  0.50245000  1.0
  O  O906  1  0.50049000  0.10406000  0.44555000  1.0
  O  O907  1  0.49770000  0.10375000  0.55660000  1.0
  O  O908  1  0.49788000  0.05367000  0.60643000  1.0
  O  O909  1  0.50060000  0.05425000  0.39544000  1.0
  O  O910  1  0.44349000  0.10387000  0.50255000  1.0
  O  O911  1  0.55454000  0.10389000  0.49948000  1.0
  O  O912  1  0.46202000  0.03546000  0.53814000  1.0
  O  O913  1  0.53635000  0.03574000  0.46366000  1.0
  O  O914  1  0.46210000  0.03551000  0.46386000  1.0
  O  O915  1  0.53626000  0.03535000  0.53784000  1.0
  O  O916  1  0.39380000  0.94281000  0.49933000  1.0
  O  O917  1  0.60480000  0.94291000  0.50201000  1.0
  O  O918  1  0.44365000  0.99713000  0.39536000  1.0
  O  O919  1  0.44384000  0.99961000  0.60634000  1.0
  O  O920  1  0.55488000  0.99669000  0.60614000  1.0
  O  O921  1  0.55474000  0.00010000  0.39515000  1.0
  O  O922  1  0.49770000  0.89308000  0.44508000  1.0
  O  O923  1  0.50082000  0.89272000  0.55619000  1.0
  O  O924  1  0.49763000  0.94319000  0.39525000  1.0
  O  O925  1  0.50082000  0.94258000  0.60624000  1.0
  O  O926  1  0.39374000  0.99691000  0.44538000  1.0
  O  O927  1  0.60477000  0.99998000  0.44503000  1.0
  O  O928  1  0.60480000  0.99690000  0.55613000  1.0
  O  O929  1  0.39382000  0.99970000  0.55644000  1.0
  O  O930  1  0.44376000  0.89284000  0.49920000  1.0
  O  O931  1  0.55488000  0.89290000  0.50202000  1.0
  O  O932  1  0.53652000  0.96115000  0.53785000  1.0
  O  O933  1  0.46210000  0.96131000  0.46360000  1.0
  O  O934  1  0.53627000  0.96144000  0.46361000  1.0
  O  O935  1  0.46225000  0.96122000  0.53782000  1.0
