data_crystal

_cell_length_a 26.85140
_cell_length_b 26.85140
_cell_length_c 26.85140
_cell_angle_alpha 90.00000
_cell_angle_beta  90.00000
_cell_angle_gamma 90.00000

_symmetry_space_group_name_	'P 1'
_symmetry_space_group_name_H-M	'P 1'

loop_
_symmetry_equiv_pos_as_xyz
  x,y,z

loop_
_atom_site_label
_atom_site_type_symbol
_atom_site_fract_x
_atom_site_fract_y
_atom_site_fract_z
_atom_site_charge
Zr	Zr	0.50000 0.00000 0.09200 3.20700
Zr	Zr	0.50000 0.00000 0.90800 3.20600
Zr	Zr	0.09200 0.50000 -0.00000 3.20700
Zr	Zr	0.90800 0.50000 -0.00000 3.20600
Zr	Zr	0.00000 0.09200 0.50000 3.20700
Zr	Zr	0.00000 0.90800 0.50000 3.20600
Zr	Zr	0.50000 0.50000 0.59200 3.21600
Zr	Zr	0.50000 0.50000 0.40800 3.21600
Zr	Zr	0.09200 0.00000 0.50000 3.20800
Zr	Zr	0.90800 0.00000 0.50000 3.20600
Zr	Zr	0.00000 0.59200 -0.00000 3.19700
Zr	Zr	-0.00000 0.40800 -0.00000 3.19700
Zr	Zr	0.00000 0.00000 0.59200 3.19700
Zr	Zr	0.00000 0.00000 0.40800 3.19700
Zr	Zr	0.59200 0.50000 0.50000 3.21600
Zr	Zr	0.40800 0.50000 0.50000 3.21600
Zr	Zr	0.50000 0.09200 -0.00000 3.20800
Zr	Zr	0.50000 0.90800 -0.00000 3.20600
Zr	Zr	0.00000 0.50000 0.09200 3.20800
Zr	Zr	0.00000 0.50000 0.90800 3.20600
Zr	Zr	0.59200 0.00000 -0.00000 3.19700
Zr	Zr	0.40800 0.00000 -0.00000 3.19700
Zr	Zr	0.50000 0.59200 0.50000 3.21600
Zr	Zr	0.50000 0.40800 0.50000 3.21600
H2	H	0.32620 0.00000 0.27650 -0.02200
H2	H	0.67380 0.00000 0.27650 -0.02100
H2	H	0.67380 -0.00000 0.72350 -0.02000
H2	H	0.32620 -0.00000 0.72350 -0.02100
H2	H	0.27650 0.32620 -0.00000 -0.02200
H3	H	0.27650 0.67380 -0.00000 -0.02100
H3	H	0.72350 0.67380 -0.00000 -0.02000
H3	H	0.72350 0.32620 -0.00000 -0.02100
H3	H	0.00000 0.27650 0.32620 -0.02200
H3	H	-0.00000 0.27650 0.67380 -0.02100
H3	H	0.00000 0.72350 0.67380 -0.02000
H3	H	0.00000 0.72350 0.32620 -0.02100
H3	H	0.32620 0.50000 0.77650 0.00900
H3	H	0.67380 0.50000 0.77650 0.01000
H3	H	0.67380 0.50000 0.22350 -0.00200
H4	H	0.32620 0.50000 0.22350 -0.00300
H4	H	0.27650 0.82620 0.50000 0.01000
H4	H	0.27650 0.17380 0.50000 -0.00400
H4	H	0.72350 0.17380 0.50000 -0.00300
H4	H	0.72350 0.82620 0.50000 0.01100
H4	H	0.00000 0.77650 0.82620 -0.00400
H4	H	0.00000 0.77650 0.17380 -0.01900
H4	H	0.00000 0.22350 0.17380 -0.03100
H4	H	0.00000 0.22350 0.82620 -0.01600
H4	H	0.82620 0.00000 0.77650 -0.00400
H5	H	0.17380 0.00000 0.77650 -0.01900
H5	H	0.17380 0.00000 0.22350 -0.03100
H5	H	0.82620 0.00000 0.22350 -0.01600
H5	H	0.77650 0.32620 0.50000 0.00800
H5	H	0.77650 0.67380 0.50000 0.00900
H5	H	0.22350 0.67380 0.50000 -0.00200
H5	H	0.22350 0.32620 0.50000 -0.00300
H5	H	0.50000 0.27650 0.82620 0.01000
H5	H	0.50000 0.27650 0.17380 -0.00400
H5	H	0.50000 0.72350 0.17380 -0.00300
H6	H	0.50000 0.72350 0.82620 0.01100
H6	H	0.82620 0.50000 0.27650 0.01000
H6	H	0.17380 0.50000 0.27650 -0.00400
H6	H	0.17380 0.50000 0.72350 -0.00300
H6	H	0.82620 0.50000 0.72350 0.01100
H6	H	0.77650 0.82620 -0.00000 -0.00400
H6	H	0.77650 0.17380 -0.00000 -0.01900
H6	H	0.22350 0.17380 -0.00000 -0.03100
H6	H	0.22350 0.82620 -0.00000 -0.01600
H6	H	0.50000 0.77650 0.32620 0.00800
H7	H	0.50000 0.77650 0.67380 0.00900
H7	H	0.50000 0.22350 0.67380 -0.00200
H7	H	0.50000 0.22350 0.32620 -0.00300
H7	H	0.22330 0.00000 0.17400 -0.03000
H7	H	0.77670 0.00000 0.17400 -0.01900
H7	H	0.77670 0.00000 0.82600 -0.00400
H7	H	0.22330 0.00000 0.82600 -0.01500
H7	H	0.17400 0.22330 -0.00000 -0.03000
H7	H	0.17400 0.77670 -0.00000 -0.01900
H7	H	0.82600 0.77670 -0.00000 -0.00400
H8	H	0.82600 0.22330 -0.00000 -0.01500
H8	H	0.00000 0.17400 0.22330 -0.03000
H8	H	0.00000 0.17400 0.77670 -0.01900
H8	H	0.00000 0.82600 0.77670 -0.00400
H8	H	0.00000 0.82600 0.22330 -0.01500
H8	H	0.22330 0.50000 0.67400 -0.00200
H8	H	0.77670 0.50000 0.67400 0.00900
H8	H	0.77670 0.50000 0.32600 0.00800
H8	H	0.22330 0.50000 0.32600 -0.00300
H8	H	0.17400 0.72330 0.50000 -0.00300
H9	H	0.17400 0.27670 0.50000 -0.00400
H9	H	0.82600 0.27670 0.50000 0.01000
H9	H	0.82600 0.72330 0.50000 0.01100
H9	H	0.00000 0.67400 0.72330 -0.02100
H9	H	0.00000 0.67400 0.27670 -0.02200
H9	H	0.00000 0.32600 0.27670 -0.02300
H9	H	0.00000 0.32600 0.72330 -0.02200
H9	H	0.72330 0.00000 0.67400 -0.02100
H9	H	0.27670 0.00000 0.67400 -0.02200
H9	H	0.27670 0.00000 0.32600 -0.02300
H1	H	0.72330 0.00000 0.32600 -0.02200
H1	H	0.67400 0.22330 0.50000 -0.00200
H1	H	0.67400 0.77670 0.50000 0.00900
H1	H	0.32600 0.77670 0.50000 0.00800
H1	H	0.32600 0.22330 0.50000 -0.00300
H1	H	0.50000 0.17400 0.72330 -0.00300
H1	H	0.50000 0.17400 0.27670 -0.00400
H1	H	0.50000 0.82600 0.27670 0.01000
H1	H	0.50000 0.82600 0.72330 0.01100
H1	H	0.72330 0.50000 0.17400 -0.00300
H1	H	0.27670 0.50000 0.17400 -0.00400
H1	H	0.27670 0.50000 0.82600 0.01000
H1	H	0.72330 0.50000 0.82600 0.01100
H1	H	0.67400 0.72330 -0.00000 -0.02100
H1	H	0.67400 0.27670 -0.00000 -0.02200
H1	H	0.32600 0.27670 -0.00000 -0.02300
H1	H	0.32600 0.72330 -0.00000 -0.02200
H1	H	0.50000 0.67400 0.22330 -0.00200
H1	H	0.50000 0.67400 0.77670 0.00900
H1	H	0.50000 0.32600 0.77670 0.00800
H1	H	0.50000 0.32600 0.22330 -0.00300
C1	C	0.38220 0.00000 0.11750 0.03100
C1	C	0.61780 0.00000 0.11750 0.03100
C1	C	0.61780 0.00000 0.88250 0.03000
C1	C	0.38220 0.00000 0.88250 0.03000
C1	C	0.11750 0.38220 -0.00000 0.03100
C1	C	0.11750 0.61780 -0.00000 0.03100
C1	C	0.88250 0.61780 -0.00000 0.03000
C1	C	0.88250 0.38220 -0.00000 0.03000
C1	C	-0.00000 0.11750 0.38220 0.03100
C1	C	0.00000 0.11750 0.61780 0.03100
C1	C	0.00000 0.88250 0.61780 0.03000
C1	C	0.00000 0.88250 0.38220 0.03000
C1	C	0.38220 0.50000 0.61750 0.04600
C1	C	0.61780 0.50000 0.61750 0.04600
C1	C	0.61780 0.50000 0.38250 0.04600
C1	C	0.38220 0.50000 0.38250 0.04600
C1	C	0.11750 0.88220 0.50000 0.04400
C1	C	0.11750 0.11780 0.50000 0.04600
C1	C	0.88250 0.11780 0.50000 0.04400
C1	C	0.88250 0.88220 0.50000 0.04300
C1	C	-0.00000 0.61750 0.88220 0.03000
C1	C	0.00000 0.61750 0.11780 0.03100
C1	C	0.00000 0.38250 0.11780 0.03100
C1	C	0.00000 0.38250 0.88220 0.03000
C1	C	0.88220 0.00000 0.61750 0.03000
C1	C	0.11780 0.00000 0.61750 0.03100
C1	C	0.11780 0.00000 0.38250 0.03100
C1	C	0.88220 0.00000 0.38250 0.03000
C1	C	0.61750 0.38220 0.50000 0.04600
C1	C	0.61750 0.61780 0.50000 0.04600
C1	C	0.38250 0.61780 0.50000 0.04600
C1	C	0.38250 0.38220 0.50000 0.04600
C1	C	0.50000 0.11750 0.88220 0.04400
C1	C	0.50000 0.11750 0.11780 0.04600
C1	C	0.50000 0.88250 0.11780 0.04400
C1	C	0.50000 0.88250 0.88220 0.04300
C1	C	0.88220 0.50000 0.11750 0.04400
C1	C	0.11780 0.50000 0.11750 0.04600
C1	C	0.11780 0.50000 0.88250 0.04400
C1	C	0.88220 0.50000 0.88250 0.04300
C1	C	0.61750 0.88220 -0.00000 0.03000
C1	C	0.61750 0.11780 -0.00000 0.03100
C1	C	0.38250 0.11780 -0.00000 0.03100
C1	C	0.38250 0.88220 -0.00000 0.03000
C1	C	0.50000 0.61750 0.38220 0.04600
C1	C	0.50000 0.61750 0.61780 0.04600
C1	C	0.50000 0.38250 0.61780 0.04600
C1	C	0.50000 0.38250 0.38220 0.04600
C1	C	0.34310 -0.00000 0.15690 -0.02500
C1	C	0.65690 -0.00000 0.15690 -0.02500
C1	C	0.65690 0.00000 0.84310 -0.02200
C1	C	0.34310 0.00000 0.84310 -0.02200
C1	C	0.15690 0.34310 -0.00000 -0.02500
C1	C	0.15690 0.65690 -0.00000 -0.02500
C1	C	0.84310 0.65690 -0.00000 -0.02200
C1	C	0.84310 0.34310 -0.00000 -0.02200
C1	C	0.00000 0.15690 0.34310 -0.02500
C1	C	-0.00000 0.15690 0.65690 -0.02500
C1	C	0.00000 0.84310 0.65690 -0.02200
C1	C	0.00000 0.84310 0.34310 -0.02200
C1	C	0.34310 0.50000 0.65690 -0.00300
C1	C	0.65690 0.50000 0.65690 -0.00300
C1	C	0.65690 0.50000 0.34310 -0.00300
C1	C	0.34310 0.50000 0.34310 -0.00400
C1	C	0.15690 0.84310 0.50000 -0.00200
C1	C	0.15690 0.15690 0.50000 -0.00400
C1	C	0.84310 0.15690 0.50000 -0.00200
C1	C	0.84310 0.84310 0.50000 0.00000
C1	C	0.00000 0.65690 0.84310 -0.02200
C1	C	-0.00000 0.65690 0.15690 -0.02500
C1	C	0.00000 0.34310 0.15690 -0.02500
C1	C	0.00000 0.34310 0.84310 -0.02200
C1	C	0.84310 0.00000 0.65690 -0.02200
C1	C	0.15690 0.00000 0.65690 -0.02500
C1	C	0.15690 0.00000 0.34310 -0.02500
C1	C	0.84310 0.00000 0.34310 -0.02200
C1	C	0.65690 0.34310 0.50000 -0.00300
C1	C	0.65690 0.65690 0.50000 -0.00300
C1	C	0.34310 0.65690 0.50000 -0.00300
C2	C	0.34310 0.34310 0.50000 -0.00400
C2	C	0.50000 0.15690 0.84310 -0.00200
C2	C	0.50000 0.15690 0.15690 -0.00400
C2	C	0.50000 0.84310 0.15690 -0.00200
C2	C	0.50000 0.84310 0.84310 0.00000
C2	C	0.84310 0.50000 0.15690 -0.00200
C2	C	0.15690 0.50000 0.15690 -0.00400
C2	C	0.15690 0.50000 0.84310 -0.00200
C2	C	0.84310 0.50000 0.84310 0.00000
C2	C	0.65690 0.84310 -0.00000 -0.02200
C2	C	0.65690 0.15690 -0.00000 -0.02500
C2	C	0.34310 0.15690 -0.00000 -0.02500
C2	C	0.34310 0.84310 -0.00000 -0.02200
C2	C	0.50000 0.65690 0.34310 -0.00300
C2	C	0.50000 0.65690 0.65690 -0.00300
C2	C	0.50000 0.34310 0.65690 -0.00300
C2	C	0.50000 0.34310 0.34310 -0.00400
C2	C	0.29300 -0.00000 0.14320 -0.02700
C2	C	0.70700 -0.00000 0.14320 -0.02500
C2	C	0.70700 0.00000 0.85680 -0.02500
C2	C	0.29300 0.00000 0.85680 -0.02700
C2	C	0.14320 0.29300 -0.00000 -0.02700
C2	C	0.14320 0.70700 -0.00000 -0.02500
C2	C	0.85680 0.70700 -0.00000 -0.02500
C2	C	0.85680 0.29300 -0.00000 -0.02700
C2	C	0.00000 0.14320 0.29300 -0.02700
C2	C	-0.00000 0.14320 0.70700 -0.02500
C2	C	0.00000 0.85680 0.70700 -0.02500
C2	C	-0.00000 0.85680 0.29300 -0.02700
C2	C	0.29300 0.50000 0.64320 0.00300
C2	C	0.70700 0.50000 0.64320 0.00500
C2	C	0.70700 0.50000 0.35680 0.00400
C2	C	0.29300 0.50000 0.35680 0.00300
C2	C	0.14320 0.79300 0.50000 0.00400
C2	C	0.14320 0.20700 0.50000 0.00300
C2	C	0.85680 0.20700 0.50000 0.00300
C2	C	0.85680 0.79300 0.50000 0.00300
C2	C	0.00000 0.64320 0.79300 -0.02500
C2	C	0.00000 0.64320 0.20700 -0.02600
C2	C	0.00000 0.35680 0.20700 -0.02700
C2	C	0.00000 0.35680 0.79300 -0.02600
C2	C	0.79300 0.00000 0.64320 -0.02500
C2	C	0.20700 0.00000 0.64320 -0.02600
C2	C	0.20700 0.00000 0.35680 -0.02700
C2	C	0.79300 0.00000 0.35680 -0.02600
C2	C	0.64320 0.29300 0.50000 0.00300
C2	C	0.64320 0.70700 0.50000 0.00500
C2	C	0.35680 0.70700 0.50000 0.00400
C2	C	0.35680 0.29300 0.50000 0.00300
C2	C	0.50000 0.14320 0.79300 0.00400
C2	C	0.50000 0.14320 0.20700 0.00300
C2	C	0.50000 0.85680 0.20700 0.00300
C2	C	0.50000 0.85680 0.79300 0.00300
C2	C	0.79300 0.50000 0.14320 0.00400
C2	C	0.20700 0.50000 0.14320 0.00300
C2	C	0.20700 0.50000 0.85680 0.00300
C2	C	0.79300 0.50000 0.85680 0.00300
C2	C	0.64320 0.79300 -0.00000 -0.02500
C2	C	0.64320 0.20700 -0.00000 -0.02600
C2	C	0.35680 0.20700 -0.00000 -0.02700
C2	C	0.35680 0.79300 -0.00000 -0.02600
C2	C	0.50000 0.64320 0.29300 0.00300
C2	C	0.50000 0.64320 0.70700 0.00500
C2	C	0.50000 0.35680 0.70700 0.00400
C2	C	0.50000 0.35680 0.29300 0.00300
C2	C	0.35650 0.00000 0.20690 -0.02800
C2	C	0.64350 0.00000 0.20690 -0.02800
C2	C	0.64350 0.00000 0.79310 -0.02700
C2	C	0.35650 0.00000 0.79310 -0.02700
C2	C	0.20690 0.35650 -0.00000 -0.02800
C2	C	0.20690 0.64350 -0.00000 -0.02800
C2	C	0.79310 0.64350 -0.00000 -0.02700
C2	C	0.79310 0.35650 -0.00000 -0.02700
C2	C	-0.00000 0.20690 0.35650 -0.02800
C2	C	0.00000 0.20690 0.64350 -0.02800
C2	C	0.00000 0.79310 0.64350 -0.02700
C2	C	0.00000 0.79310 0.35650 -0.02700
C2	C	0.35650 0.50000 0.70690 0.00400
C2	C	0.64350 0.50000 0.70690 0.00500
C2	C	0.64350 0.50000 0.29310 0.00400
C2	C	0.35650 0.50000 0.29310 0.00300
C2	C	0.20690 0.85650 0.50000 0.00300
C2	C	0.20690 0.14350 0.50000 0.00300
C2	C	0.79310 0.14350 0.50000 0.00400
C2	C	0.79310 0.85650 0.50000 0.00300
C2	C	0.00000 0.70690 0.85650 -0.02700
C2	C	0.00000 0.70690 0.14350 -0.02700
C2	C	0.00000 0.29310 0.14350 -0.02900
C2	C	0.00000 0.29310 0.85650 -0.02800
C2	C	0.85650 0.00000 0.70690 -0.02700
C2	C	0.14350 0.00000 0.70690 -0.02700
C2	C	0.14350 0.00000 0.29310 -0.02900
C2	C	0.85650 0.00000 0.29310 -0.02800
C2	C	0.70690 0.35650 0.50000 0.00400
C2	C	0.70690 0.64350 0.50000 0.00500
C2	C	0.29310 0.64350 0.50000 0.00400
C2	C	0.29310 0.35650 0.50000 0.00300
C2	C	0.50000 0.20690 0.85650 0.00300
C2	C	0.50000 0.20690 0.14350 0.00300
C2	C	0.50000 0.79310 0.14350 0.00400
C3	C	0.50000 0.79310 0.85650 0.00300
C3	C	0.85650 0.50000 0.20690 0.00300
C3	C	0.14350 0.50000 0.20690 0.00300
C3	C	0.14350 0.50000 0.79310 0.00400
C3	C	0.85650 0.50000 0.79310 0.00300
C3	C	0.70690 0.85650 -0.00000 -0.02700
C3	C	0.70690 0.14350 -0.00000 -0.02700
C3	C	0.29310 0.14350 -0.00000 -0.02900
C3	C	0.29310 0.85650 -0.00000 -0.02800
C3	C	0.50000 0.70690 0.35650 0.00400
C3	C	0.50000 0.70690 0.64350 0.00500
C3	C	0.50000 0.29310 0.64350 0.00400
C3	C	0.50000 0.29310 0.35650 0.00300
C3	C	0.31770 0.00000 0.24220 -0.00400
C3	C	0.68230 0.00000 0.24220 -0.00400
C3	C	0.68230 0.00000 0.75780 -0.00300
C3	C	0.31770 0.00000 0.75780 -0.00300
C3	C	0.24220 0.31770 -0.00000 -0.00400
C3	C	0.24220 0.68230 -0.00000 -0.00400
C3	C	0.75780 0.68230 -0.00000 -0.00300
C3	C	0.75780 0.31770 -0.00000 -0.00300
C3	C	0.00000 0.24220 0.31770 -0.00400
C3	C	0.00000 0.24220 0.68230 -0.00400
C3	C	0.00000 0.75780 0.68230 -0.00300
C3	C	0.00000 0.75780 0.31770 -0.00300
C3	C	0.31770 0.50000 0.74220 -0.00200
C3	C	0.68230 0.50000 0.74220 -0.00200
C3	C	0.68230 0.50000 0.25780 0.00000
C3	C	0.31770 0.50000 0.25780 0.00000
C3	C	0.24220 0.81770 0.50000 -0.00200
C3	C	0.24220 0.18230 0.50000 -0.00000
C3	C	0.75780 0.18230 0.50000 0.00000
C3	C	0.75780 0.81770 0.50000 -0.00100
C3	C	0.00000 0.74220 0.81770 -0.00600
C3	C	0.00000 0.74220 0.18230 -0.00500
C3	C	0.00000 0.25780 0.18230 -0.00300
C3	C	0.00000 0.25780 0.81770 -0.00400
C3	C	0.81770 0.00000 0.74220 -0.00600
C3	C	0.18230 0.00000 0.74220 -0.00500
C3	C	0.18230 0.00000 0.25780 -0.00300
C3	C	0.81770 0.00000 0.25780 -0.00400
C3	C	0.74220 0.31770 0.50000 -0.00200
C3	C	0.74220 0.68230 0.50000 -0.00200
C3	C	0.25780 0.68230 0.50000 0.00000
C3	C	0.25780 0.31770 0.50000 0.00000
C3	C	0.50000 0.24220 0.81770 -0.00200
C3	C	0.50000 0.24220 0.18230 -0.00000
C3	C	0.50000 0.75780 0.18230 0.00000
C3	C	0.50000 0.75780 0.81770 -0.00100
C3	C	0.81770 0.50000 0.24220 -0.00200
C3	C	0.18230 0.50000 0.24220 -0.00000
C3	C	0.18230 0.50000 0.75780 0.00000
C3	C	0.81770 0.50000 0.75780 -0.00100
C3	C	0.74220 0.81770 -0.00000 -0.00600
C3	C	0.74220 0.18230 -0.00000 -0.00500
C3	C	0.25780 0.18230 -0.00000 -0.00300
C3	C	0.25780 0.81770 -0.00000 -0.00400
C3	C	0.50000 0.74220 0.31770 -0.00200
C3	C	0.50000 0.74220 0.68230 -0.00200
C3	C	0.50000 0.25780 0.68230 0.00000
C3	C	0.50000 0.25780 0.31770 0.00000
C3	C	0.27020 0.00000 0.22990 -0.01200
C3	C	0.72980 0.00000 0.22990 -0.01000
C3	C	0.72980 0.00000 0.77010 -0.00800
C3	C	0.27020 0.00000 0.77010 -0.01000
C3	C	0.22990 0.27020 -0.00000 -0.01200
C3	C	0.22990 0.72980 -0.00000 -0.01000
C3	C	0.77010 0.72980 -0.00000 -0.00800
C3	C	0.77010 0.27020 -0.00000 -0.01000
C3	C	0.00000 0.22990 0.27020 -0.01200
C3	C	0.00000 0.22990 0.72980 -0.01000
C3	C	0.00000 0.77010 0.72980 -0.00800
C3	C	-0.00000 0.77010 0.27020 -0.01000
C3	C	0.27020 0.50000 0.72990 0.00100
C3	C	0.72980 0.50000 0.72990 0.00300
C3	C	0.72980 0.50000 0.27010 0.00100
C3	C	0.27020 0.50000 0.27010 -0.00100
C3	C	0.22990 0.77020 0.50000 0.00100
C3	C	0.22990 0.22980 0.50000 -0.00100
C3	C	0.77010 0.22980 0.50000 0.00100
C3	C	0.77010 0.77020 0.50000 0.00400
C3	C	0.00000 0.72990 0.77020 -0.00800
C3	C	0.00000 0.72990 0.22980 -0.01000
C3	C	0.00000 0.27010 0.22980 -0.01200
C3	C	-0.00000 0.27010 0.77020 -0.01000
C3	C	0.77020 0.00000 0.72990 -0.00800
C3	C	0.22980 0.00000 0.72990 -0.01000
C3	C	0.22980 0.00000 0.27010 -0.01200
C3	C	0.77020 0.00000 0.27010 -0.01000
C3	C	0.72990 0.27020 0.50000 0.00100
C3	C	0.72990 0.72980 0.50000 0.00300
C3	C	0.27010 0.72980 0.50000 0.00100
C3	C	0.27010 0.27020 0.50000 -0.00100
C3	C	0.50000 0.22990 0.77020 0.00100
C3	C	0.50000 0.22990 0.22980 -0.00100
C3	C	0.50000 0.77010 0.22980 0.00100
C3	C	0.50000 0.77010 0.77020 0.00400
C3	C	0.77020 0.50000 0.22990 0.00100
C3	C	0.22980 0.50000 0.22990 -0.00100
C3	C	0.22980 0.50000 0.77010 0.00100
C4	C	0.77020 0.50000 0.77010 0.00400
C4	C	0.72990 0.77020 -0.00000 -0.00800
C4	C	0.72990 0.22980 -0.00000 -0.01000
C4	C	0.27010 0.22980 -0.00000 -0.01200
C4	C	0.27010 0.77020 -0.00000 -0.01000
C4	C	0.50000 0.72990 0.27020 0.00100
C4	C	0.50000 0.72990 0.72980 0.00300
C4	C	0.50000 0.27010 0.72980 0.00100
C4	C	0.50000 0.27010 0.27020 -0.00100
C4	C	0.25760 0.00000 0.18230 -0.00300
C4	C	0.74240 0.00000 0.18230 -0.00500
C4	C	0.74240 0.00000 0.81770 -0.00700
C4	C	0.25760 0.00000 0.81770 -0.00500
C4	C	0.18230 0.25760 -0.00000 -0.00300
C4	C	0.18230 0.74240 -0.00000 -0.00500
C4	C	0.81770 0.74240 -0.00000 -0.00700
C4	C	0.81770 0.25760 -0.00000 -0.00500
C4	C	0.00000 0.18230 0.25760 -0.00300
C4	C	0.00000 0.18230 0.74240 -0.00500
C4	C	0.00000 0.81770 0.74240 -0.00700
C4	C	0.00000 0.81770 0.25760 -0.00500
C4	C	0.25760 0.50000 0.68230 0.00000
C4	C	0.74240 0.50000 0.68230 -0.00200
C4	C	0.74240 0.50000 0.31770 -0.00200
C4	C	0.25760 0.50000 0.31770 0.00000
C4	C	0.18230 0.75760 0.50000 0.00000
C4	C	0.18230 0.24240 0.50000 -0.00000
C4	C	0.81770 0.24240 0.50000 -0.00200
C4	C	0.81770 0.75760 0.50000 -0.00100
C4	C	0.00000 0.68230 0.75760 -0.00400
C4	C	0.00000 0.68230 0.24240 -0.00400
C4	C	0.00000 0.31770 0.24240 -0.00500
C4	C	0.00000 0.31770 0.75760 -0.00400
C4	C	0.75760 0.00000 0.68230 -0.00400
C4	C	0.24240 0.00000 0.68230 -0.00400
C4	C	0.24240 0.00000 0.31770 -0.00500
C4	C	0.75760 0.00000 0.31770 -0.00400
C4	C	0.68230 0.25760 0.50000 0.00000
C4	C	0.68230 0.74240 0.50000 -0.00200
C4	C	0.31770 0.74240 0.50000 -0.00200
C4	C	0.31770 0.25760 0.50000 0.00000
C4	C	0.50000 0.18230 0.75760 0.00000
C4	C	0.50000 0.18230 0.24240 -0.00000
C4	C	0.50000 0.81770 0.24240 -0.00200
C4	C	0.50000 0.81770 0.75760 -0.00100
C4	C	0.75760 0.50000 0.18230 0.00000
C4	C	0.24240 0.50000 0.18230 -0.00000
C4	C	0.24240 0.50000 0.81770 -0.00200
C4	C	0.75760 0.50000 0.81770 -0.00100
C4	C	0.68230 0.75760 -0.00000 -0.00400
C4	C	0.68230 0.24240 -0.00000 -0.00400
C4	C	0.31770 0.24240 -0.00000 -0.00500
C4	C	0.31770 0.75760 -0.00000 -0.00400
C4	C	0.50000 0.68230 0.25760 0.00000
C4	C	0.50000 0.68230 0.74240 -0.00200
C4	C	0.50000 0.31770 0.74240 -0.00200
C4	C	0.50000 0.31770 0.25760 0.00000
O4	O	0.36640 0.00000 0.07130 -0.47300
O4	O	0.63360 0.00000 0.07130 -0.47300
O4	O	0.63360 0.00000 0.92870 -0.43000
O4	O	0.36640 0.00000 0.92870 -0.43000
O4	O	0.07130 0.36640 -0.00000 -0.47300
O4	O	0.07130 0.63360 -0.00000 -0.47300
O4	O	0.92870 0.63360 -0.00000 -0.43000
O4	O	0.92870 0.36640 -0.00000 -0.43000
O4	O	0.00000 0.07130 0.36640 -0.47300
O4	O	-0.00000 0.07130 0.63360 -0.47300
O4	O	0.00000 0.92870 0.63360 -0.43000
O4	O	0.00000 0.92870 0.36640 -0.43000
O4	O	0.36640 0.50000 0.57130 -0.43100
O4	O	0.63360 0.50000 0.57130 -0.43100
O4	O	0.63360 0.50000 0.42870 -0.43100
O4	O	0.36640 0.50000 0.42870 -0.43100
O4	O	0.07130 0.86640 0.50000 -0.43400
O4	O	0.07130 0.13360 0.50000 -0.43800
O4	O	0.92870 0.13360 0.50000 -0.39500
O4	O	0.92870 0.86640 0.50000 -0.39300
O4	O	0.00000 0.57130 0.86640 -0.46400
O4	O	0.00000 0.57130 0.13360 -0.46800
O4	O	0.00000 0.42870 0.13360 -0.46800
O4	O	-0.00000 0.42870 0.86640 -0.46400
O4	O	0.86640 0.00000 0.57130 -0.46400
O4	O	0.13360 0.00000 0.57130 -0.46800
O4	O	0.13360 0.00000 0.42870 -0.46800
O4	O	0.86640 0.00000 0.42870 -0.46400
O4	O	0.57130 0.36640 0.50000 -0.43100
O4	O	0.57130 0.63360 0.50000 -0.43100
O4	O	0.42870 0.63360 0.50000 -0.43100
O4	O	0.42870 0.36640 0.50000 -0.43100
O4	O	0.50000 0.07130 0.86640 -0.43400
O4	O	0.50000 0.07130 0.13360 -0.43800
O4	O	0.50000 0.92870 0.13360 -0.39500
O4	O	0.50000 0.92870 0.86640 -0.39300
O4	O	0.86640 0.50000 0.07130 -0.43400
O4	O	0.13360 0.50000 0.07130 -0.43800
O4	O	0.13360 0.50000 0.92870 -0.39500
O4	O	0.86640 0.50000 0.92870 -0.39300
O4	O	0.57130 0.86640 -0.00000 -0.46400
O4	O	0.57130 0.13360 -0.00000 -0.46800
O4	O	0.42870 0.13360 -0.00000 -0.46800
O5	O	0.42870 0.86640 -0.00000 -0.46400
O5	O	0.50000 0.57130 0.36640 -0.43100
O5	O	0.50000 0.57130 0.63360 -0.43100
O5	O	0.50000 0.42870 0.63360 -0.43100
O5	O	0.50000 0.42870 0.36640 -0.43100
O5	O	0.42840 0.00000 0.13360 -0.46500
O5	O	0.57160 0.00000 0.13360 -0.46400
O5	O	0.57160 0.00000 0.86640 -0.46000
O5	O	0.42840 0.00000 0.86640 -0.46100
O5	O	0.13360 0.42840 -0.00000 -0.46500
O5	O	0.13360 0.57160 -0.00000 -0.46400
O5	O	0.86640 0.57160 -0.00000 -0.46000
O5	O	0.86640 0.42840 -0.00000 -0.46100
O5	O	0.00000 0.13360 0.42840 -0.46500
O5	O	0.00000 0.13360 0.57160 -0.46400
O5	O	-0.00000 0.86640 0.57160 -0.46000
O5	O	0.00000 0.86640 0.42840 -0.46100
O5	O	0.42840 0.50000 0.63360 -0.42700
O5	O	0.57160 0.50000 0.63360 -0.42700
O5	O	0.57160 0.50000 0.36640 -0.42700
O5	O	0.42840 0.50000 0.36640 -0.42700
O5	O	0.13360 0.92840 0.50000 -0.39200
O5	O	0.13360 0.07160 0.50000 -0.43400
O5	O	0.86640 0.07160 0.50000 -0.43100
O5	O	0.86640 0.92840 0.50000 -0.39000
O5	O	-0.00000 0.63360 0.92840 -0.42700
O5	O	-0.00000 0.63360 0.07160 -0.46900
O5	O	0.00000 0.36640 0.07160 -0.46900
O5	O	0.00000 0.36640 0.92840 -0.42700
O5	O	0.92840 0.00000 0.63360 -0.42700
O5	O	0.07160 0.00000 0.63360 -0.46900
O5	O	0.07160 0.00000 0.36640 -0.46900
O5	O	0.92840 0.00000 0.36640 -0.42700
O5	O	0.63360 0.42840 0.50000 -0.42700
O5	O	0.63360 0.57160 0.50000 -0.42700
O5	O	0.36640 0.57160 0.50000 -0.42700
O5	O	0.36640 0.42840 0.50000 -0.42700
O5	O	0.50000 0.13360 0.92840 -0.39200
O5	O	0.50000 0.13360 0.07160 -0.43400
O5	O	0.50000 0.86640 0.07160 -0.43100
O5	O	0.50000 0.86640 0.92840 -0.39000
O5	O	0.92840 0.50000 0.13360 -0.39200
O5	O	0.07160 0.50000 0.13360 -0.43400
O5	O	0.07160 0.50000 0.86640 -0.43100
O5	O	0.92840 0.50000 0.86640 -0.39000
O5	O	0.63360 0.92840 -0.00000 -0.42700
O5	O	0.63360 0.07160 -0.00000 -0.46900
O5	O	0.36640 0.07160 -0.00000 -0.46900
O5	O	0.36640 0.92840 -0.00000 -0.42700
O5	O	0.50000 0.63360 0.42840 -0.42700
O5	O	0.50000 0.63360 0.57160 -0.42700
O5	O	0.50000 0.36640 0.57160 -0.42700
O5	O	0.50000 0.36640 0.42840 -0.42700
O5	O	0.28000 0.96800 0.10000 0.20300
O5	O	0.72000 0.03200 0.10000 0.09400
O5	O	0.72000 0.96800 0.90000 0.22300
O5	O	0.28000 0.03200 0.90000 0.11100
O5	O	0.10000 0.28000 0.96800 0.20300
O5	O	0.10000 0.72000 0.03200 0.09400
O5	O	0.90000 0.72000 0.96800 0.22300
O5	O	0.90000 0.28000 0.03200 0.11100
O5	O	0.96800 0.10000 0.28000 0.20300
O5	O	0.03200 0.10000 0.72000 0.09400
O5	O	0.96800 0.90000 0.72000 0.22300
O5	O	0.03200 0.90000 0.28000 0.11100
O5	O	0.28000 0.46800 0.60000 -0.00700
O5	O	0.72000 0.53200 0.60000 -0.00100
O5	O	0.72000 0.46800 0.40000 -0.00200
O5	O	0.28000 0.53200 0.40000 -0.00700
O5	O	0.10000 0.78000 0.46800 -0.01500
O5	O	0.10000 0.22000 0.53200 -0.01700
O5	O	0.90000 0.22000 0.46800 0.00600
O5	O	0.90000 0.78000 0.53200 0.00800
O5	O	0.96800 0.60000 0.78000 0.21200
O5	O	0.03200 0.60000 0.22000 0.10200
O5	O	0.96800 0.40000 0.22000 0.21400
O5	O	0.03200 0.40000 0.78000 0.10200
O5	O	0.78000 0.96800 0.60000 0.21200
O5	O	0.22000 0.03200 0.60000 0.10200
O5	O	0.22000 0.96800 0.40000 0.21400
O5	O	0.78000 0.03200 0.40000 0.10200
O5	O	0.60000 0.28000 0.46800 -0.00700
O5	O	0.60000 0.72000 0.53200 -0.00100
O5	O	0.40000 0.72000 0.46800 -0.00200
O5	O	0.40000 0.28000 0.53200 -0.00700
O5	O	0.46800 0.10000 0.78000 -0.01500
O5	O	0.53200 0.10000 0.22000 -0.01700
O5	O	0.46800 0.90000 0.22000 0.00600
O5	O	0.53200 0.90000 0.78000 0.00800
O5	O	0.78000 0.46800 0.10000 -0.01500
O5	O	0.22000 0.53200 0.10000 -0.01700
O5	O	0.22000 0.46800 0.90000 0.00600
O5	O	0.78000 0.53200 0.90000 0.00800
O5	O	0.60000 0.78000 0.96800 0.21200
O5	O	0.60000 0.22000 0.03200 0.10200
O5	O	0.40000 0.22000 0.96800 0.21400
O5	O	0.40000 0.78000 0.03200 0.10200
O5	O	0.46800 0.60000 0.28000 -0.00700
O5	O	0.53200 0.60000 0.72000 -0.00100
O5	O	0.46800 0.40000 0.72000 -0.00200
O6	O	0.53200 0.40000 0.28000 -0.00700
O6	O	0.72000 0.03200 0.90000 0.11500
O6	O	0.28000 0.96800 0.90000 0.22100
O6	O	0.28000 0.03200 0.10000 0.09000
O6	O	0.72000 0.96800 0.10000 0.20600
O6	O	0.90000 0.72000 0.03200 0.11500
O6	O	0.90000 0.28000 0.96800 0.22100
O6	O	0.10000 0.28000 0.03200 0.09000
O6	O	0.10000 0.72000 0.96800 0.20600
O6	O	0.03200 0.90000 0.72000 0.11500
O6	O	0.96800 0.90000 0.28000 0.22100
O6	O	0.03200 0.10000 0.28000 0.09000
O6	O	0.96800 0.10000 0.72000 0.20600
O6	O	0.72000 0.53200 0.40000 -0.00200
O6	O	0.28000 0.46800 0.40000 -0.00800
O6	O	0.28000 0.53200 0.60000 -0.00700
O6	O	0.72000 0.46800 0.60000 -0.00200
O6	O	0.90000 0.22000 0.53200 0.00700
O6	O	0.90000 0.78000 0.46800 0.00800
O6	O	0.10000 0.78000 0.53200 -0.01500
O6	O	0.10000 0.22000 0.46800 -0.01700
O6	O	0.03200 0.40000 0.22000 0.10200
O6	O	0.96800 0.40000 0.78000 0.21200
O6	O	0.03200 0.60000 0.78000 0.10200
O6	O	0.96800 0.60000 0.22000 0.21400
O6	O	0.22000 0.03200 0.40000 0.10200
O6	O	0.78000 0.96800 0.40000 0.21200
O6	O	0.78000 0.03200 0.60000 0.10200
O6	O	0.22000 0.96800 0.60000 0.21400
O6	O	0.40000 0.72000 0.53200 -0.00200
O6	O	0.40000 0.28000 0.46800 -0.00800
O6	O	0.60000 0.28000 0.53200 -0.00700
O6	O	0.60000 0.72000 0.46800 -0.00200
O6	O	0.53200 0.90000 0.22000 0.00700
O6	O	0.46800 0.90000 0.78000 0.00800
O6	O	0.53200 0.10000 0.78000 -0.01500
O6	O	0.46800 0.10000 0.22000 -0.01700
O6	O	0.22000 0.53200 0.90000 0.00700
O6	O	0.78000 0.46800 0.90000 0.00800
O6	O	0.78000 0.53200 0.10000 -0.01500
O6	O	0.22000 0.46800 0.10000 -0.01700
O6	O	0.40000 0.22000 0.03200 0.10200
O6	O	0.40000 0.78000 0.96800 0.21200
O6	O	0.60000 0.78000 0.03200 0.10200
O6	O	0.60000 0.22000 0.96800 0.21400
O6	O	0.53200 0.40000 0.72000 -0.00200
O6	O	0.46800 0.40000 0.28000 -0.00800
O6	O	0.53200 0.60000 0.28000 -0.00700
O6	O	0.46800 0.60000 0.72000 -0.00200
O6	O	0.40000 0.03200 0.22000 0.09900
O6	O	0.60000 0.96800 0.22000 0.21100
O6	O	0.60000 0.03200 0.78000 0.09900
O6	O	0.40000 0.96800 0.78000 0.21000
O6	O	0.22000 0.40000 0.03200 0.09900
O6	O	0.22000 0.60000 0.96800 0.21100
O6	O	0.78000 0.60000 0.03200 0.09900
O6	O	0.78000 0.40000 0.96800 0.21000
O6	O	0.03200 0.22000 0.40000 0.09900
O6	O	0.96800 0.22000 0.60000 0.21100
O6	O	0.03200 0.78000 0.60000 0.09900
O6	O	0.96800 0.78000 0.40000 0.21000
O6	O	0.40000 0.53200 0.72000 -0.00200
O6	O	0.60000 0.46800 0.72000 -0.00200
O6	O	0.60000 0.53200 0.28000 -0.00600
O6	O	0.40000 0.46800 0.28000 -0.00800
O6	O	0.22000 0.90000 0.53200 0.00600
O6	O	0.22000 0.10000 0.46800 -0.01700
O6	O	0.78000 0.10000 0.53200 -0.01500
O6	O	0.78000 0.90000 0.46800 0.00700
O6	O	0.03200 0.72000 0.90000 0.11100
O6	O	0.96800 0.72000 0.10000 0.20300
O6	O	0.03200 0.28000 0.10000 0.08800
O6	O	0.96800 0.28000 0.90000 0.21800
O6	O	0.90000 0.03200 0.72000 0.11100
O6	O	0.10000 0.96800 0.72000 0.20300
O6	O	0.10000 0.03200 0.28000 0.08800
O6	O	0.90000 0.96800 0.28000 0.21800
O6	O	0.72000 0.40000 0.53200 -0.00200
O6	O	0.72000 0.60000 0.46800 -0.00200
O6	O	0.28000 0.60000 0.53200 -0.00600
O6	O	0.28000 0.40000 0.46800 -0.00800
O6	O	0.53200 0.22000 0.90000 0.00600
O6	O	0.46800 0.22000 0.10000 -0.01700
O6	O	0.53200 0.78000 0.10000 -0.01500
O6	O	0.46800 0.78000 0.90000 0.00700
O6	O	0.90000 0.53200 0.22000 0.00600
O6	O	0.10000 0.46800 0.22000 -0.01700
O6	O	0.10000 0.53200 0.78000 -0.01500
O6	O	0.90000 0.46800 0.78000 0.00700
O6	O	0.72000 0.90000 0.03200 0.11100
O6	O	0.72000 0.10000 0.96800 0.20300
O6	O	0.28000 0.10000 0.03200 0.08800
O6	O	0.28000 0.90000 0.96800 0.21800
O6	O	0.53200 0.72000 0.40000 -0.00200
O6	O	0.46800 0.72000 0.60000 -0.00200
O6	O	0.53200 0.28000 0.60000 -0.00600
O6	O	0.46800 0.28000 0.40000 -0.00800
O6	O	0.60000 0.96800 0.78000 0.20900
O6	O	0.40000 0.03200 0.78000 0.09900
O6	O	0.40000 0.96800 0.22000 0.21200
O7	O	0.60000 0.03200 0.22000 0.09900
O7	O	0.78000 0.60000 0.96800 0.20900
O7	O	0.78000 0.40000 0.03200 0.09900
O7	O	0.22000 0.40000 0.96800 0.21200
O7	O	0.22000 0.60000 0.03200 0.09900
O7	O	0.96800 0.78000 0.60000 0.20900
O7	O	0.03200 0.78000 0.40000 0.09900
O7	O	0.96800 0.22000 0.40000 0.21200
O7	O	0.03200 0.22000 0.60000 0.09900
O7	O	0.60000 0.46800 0.28000 -0.00700
O7	O	0.40000 0.53200 0.28000 -0.00700
O7	O	0.40000 0.46800 0.72000 -0.00200
O7	O	0.60000 0.53200 0.72000 -0.00100
O7	O	0.78000 0.10000 0.46800 -0.01500
O7	O	0.78000 0.90000 0.53200 0.00800
O7	O	0.22000 0.90000 0.46800 0.00600
O7	O	0.22000 0.10000 0.53200 -0.01700
O7	O	0.96800 0.28000 0.10000 0.20100
O7	O	0.03200 0.28000 0.90000 0.10800
O7	O	0.96800 0.72000 0.90000 0.21900
O7	O	0.03200 0.72000 0.10000 0.09200
O7	O	0.10000 0.96800 0.28000 0.20100
O7	O	0.90000 0.03200 0.28000 0.10800
O7	O	0.90000 0.96800 0.72000 0.21900
O7	O	0.10000 0.03200 0.72000 0.09200
O7	O	0.28000 0.60000 0.46800 -0.00700
O7	O	0.28000 0.40000 0.53200 -0.00700
O7	O	0.72000 0.40000 0.46800 -0.00200
O7	O	0.72000 0.60000 0.53200 -0.00100
O7	O	0.46800 0.78000 0.10000 -0.01500
O7	O	0.53200 0.78000 0.90000 0.00800
O7	O	0.46800 0.22000 0.90000 0.00600
O7	O	0.53200 0.22000 0.10000 -0.01700
O7	O	0.10000 0.46800 0.78000 -0.01500
O7	O	0.90000 0.53200 0.78000 0.00800
O7	O	0.90000 0.46800 0.22000 0.00600
O7	O	0.10000 0.53200 0.22000 -0.01700
O7	O	0.28000 0.10000 0.96800 0.20100
O7	O	0.28000 0.90000 0.03200 0.10800
O7	O	0.72000 0.90000 0.96800 0.21900
O7	O	0.72000 0.10000 0.03200 0.09200
O7	O	0.46800 0.28000 0.60000 -0.00700
O7	O	0.53200 0.28000 0.40000 -0.00700
O7	O	0.46800 0.72000 0.40000 -0.00200
O7	O	0.53200 0.72000 0.60000 -0.00100
O7	O	0.40430 0.00000 0.22540 -0.23100
O7	O	0.59570 0.00000 0.22540 -0.23100
O7	O	0.59570 -0.00000 0.77460 -0.22800
O7	O	0.40430 -0.00000 0.77460 -0.22900
O7	O	0.22540 0.40430 -0.00000 -0.23100
O7	O	0.22540 0.59570 -0.00000 -0.23100
O7	O	0.77460 0.59570 -0.00000 -0.22800
O7	O	0.77460 0.40430 -0.00000 -0.22900
O7	O	0.00000 0.22540 0.40430 -0.23100
O7	O	-0.00000 0.22540 0.59570 -0.23100
O7	O	-0.00000 0.77460 0.59570 -0.22800
O7	O	0.00000 0.77460 0.40430 -0.22900
O7	O	0.40430 0.50000 0.72540 0.00400
O7	O	0.59570 0.50000 0.72540 0.00300
O7	O	0.59570 0.50000 0.27460 0.00400
O7	O	0.40430 0.50000 0.27460 0.00400
O7	O	0.22540 0.90430 0.50000 0.01300
O7	O	0.22540 0.09570 0.50000 0.01000
O7	O	0.77460 0.09570 0.50000 0.00800
O7	O	0.77460 0.90430 0.50000 0.01100
O7	O	0.00000 0.72540 0.90430 -0.21500
O7	O	0.00000 0.72540 0.09570 -0.22400
O7	O	-0.00000 0.27460 0.09570 -0.22700
O7	O	-0.00000 0.27460 0.90430 -0.21800
O7	O	0.90430 0.00000 0.72540 -0.21500
O7	O	0.09570 0.00000 0.72540 -0.22400
O7	O	0.09570 0.00000 0.27460 -0.22700
O7	O	0.90430 0.00000 0.27460 -0.21800
O7	O	0.72540 0.40430 0.50000 0.00400
O7	O	0.72540 0.59570 0.50000 0.00300
O7	O	0.27460 0.59570 0.50000 0.00400
O7	O	0.27460 0.40430 0.50000 0.00400
O7	O	0.50000 0.22540 0.90430 0.01300
O7	O	0.50000 0.22540 0.09570 0.01000
O7	O	0.50000 0.77460 0.09570 0.00800
O7	O	0.50000 0.77460 0.90430 0.01100
O7	O	0.90430 0.50000 0.22540 0.01300
O7	O	0.09570 0.50000 0.22540 0.01000
O7	O	0.09570 0.50000 0.77460 0.00800
O7	O	0.90430 0.50000 0.77460 0.01100
O7	O	0.72540 0.90430 -0.00000 -0.21500
O7	O	0.72540 0.09570 -0.00000 -0.22400
O7	O	0.27460 0.09570 -0.00000 -0.22700
O7	O	0.27460 0.90430 -0.00000 -0.21800
O7	O	0.50000 0.72540 0.40430 0.00400
O7	O	0.50000 0.72540 0.59570 0.00300
O7	O	0.50000 0.27460 0.59570 0.00400
O7	O	0.50000 0.27460 0.40430 0.00400
O7	O	0.27490 0.00000 0.09610 -0.23100
O7	O	0.72510 0.00000 0.09610 -0.22800
O7	O	0.72510 0.00000 0.90390 -0.22000
O7	O	0.27490 0.00000 0.90390 -0.22300
O7	O	0.09610 0.27490 -0.00000 -0.23100
O7	O	0.09610 0.72510 -0.00000 -0.22800
O7	O	0.90390 0.72510 -0.00000 -0.22000
O8	O	0.90390 0.27490 -0.00000 -0.22300
O8	O	0.00000 0.09610 0.27490 -0.23100
O8	O	-0.00000 0.09610 0.72510 -0.22800
O8	O	0.00000 0.90390 0.72510 -0.22000
O8	O	0.00000 0.90390 0.27490 -0.22300
O8	O	0.27490 0.50000 0.59610 0.00400
O8	O	0.72510 0.50000 0.59610 0.00300
O8	O	0.72510 0.50000 0.40390 0.00400
O8	O	0.27490 0.50000 0.40390 0.00500
O8	O	0.09610 0.77490 0.50000 0.00900
O8	O	0.09610 0.22510 0.50000 0.01100
O8	O	0.90390 0.22510 0.50000 0.01200
O8	O	0.90390 0.77490 0.50000 0.01100
O8	O	0.00000 0.59610 0.77490 -0.23200
O8	O	0.00000 0.59610 0.22510 -0.23500
O8	O	0.00000 0.40390 0.22510 -0.23500
O8	O	0.00000 0.40390 0.77490 -0.23300
O8	O	0.77490 0.00000 0.59610 -0.23200
O8	O	0.22510 0.00000 0.59610 -0.23500
O8	O	0.22510 0.00000 0.40390 -0.23500
O8	O	0.77490 0.00000 0.40390 -0.23300
O8	O	0.59610 0.27490 0.50000 0.00400
O8	O	0.59610 0.72510 0.50000 0.00300
O8	O	0.40390 0.72510 0.50000 0.00400
O8	O	0.40390 0.27490 0.50000 0.00500
O8	O	0.50000 0.09610 0.77490 0.00900
O8	O	0.50000 0.09610 0.22510 0.01100
O8	O	0.50000 0.90390 0.22510 0.01200
O8	O	0.50000 0.90390 0.77490 0.01100
O8	O	0.77490 0.50000 0.09610 0.00900
O8	O	0.22510 0.50000 0.09610 0.01100
O8	O	0.22510 0.50000 0.90390 0.01200
O8	O	0.77490 0.50000 0.90390 0.01100
O8	O	0.59610 0.77490 -0.00000 -0.23200
O8	O	0.59610 0.22510 -0.00000 -0.23500
O8	O	0.40390 0.22510 -0.00000 -0.23500
O8	O	0.40390 0.77490 -0.00000 -0.23300
O8	O	0.50000 0.59610 0.27490 0.00400
O8	O	0.50000 0.59610 0.72510 0.00300
O8	O	0.50000 0.40390 0.72510 0.00400
O8	O	0.50000 0.40390 0.27490 0.00500
O8	O	0.50000 0.00000 0.20700 -0.14200
O8	O	0.50000 0.00000 0.79300 -0.14200
O8	O	0.20700 0.50000 -0.00000 -0.14200
O8	O	0.79300 0.50000 -0.00000 -0.14200
O8	O	-0.00000 0.20700 0.50000 -0.14200
O8	O	-0.00000 0.79300 0.50000 -0.14200
O8	O	0.50000 0.50000 0.70700 -0.09800
O8	O	0.50000 0.50000 0.29300 -0.10200
O8	O	0.20700 0.00000 0.50000 -0.14300
O8	O	0.79300 0.00000 0.50000 -0.14300
O8	O	-0.00000 0.70700 -0.00000 -0.18000
O8	O	-0.00000 0.29300 -0.00000 -0.18600
O8	O	-0.00000 0.00000 0.70700 -0.18000
O8	O	0.00000 0.00000 0.29300 -0.18600
O8	O	0.70700 0.50000 0.50000 -0.09800
O8	O	0.29300 0.50000 0.50000 -0.10200
O8	O	0.50000 0.20700 -0.00000 -0.14300
O8	O	0.50000 0.79300 -0.00000 -0.14300
O8	O	-0.00000 0.50000 0.20700 -0.14300
O8	O	-0.00000 0.50000 0.79300 -0.14300
O8	O	0.70700 0.00000 -0.00000 -0.18000
O8	O	0.29300 0.00000 -0.00000 -0.18600
O8	O	0.50000 0.70700 0.50000 -0.09800
O8	O	0.50000 0.29300 0.50000 -0.10200
O8	O	0.46050 0.03950 0.03950 -1.76000
O8	O	0.53950 0.96050 0.03950 -1.64000
O8	O	0.53950 0.03950 0.96050 -1.64000
O8	O	0.46050 0.96050 0.96050 -1.52700
O8	O	0.03950 0.46050 0.03950 -1.76000
O8	O	0.03950 0.53950 0.96050 -1.64000
O8	O	0.96050 0.53950 0.03950 -1.64000
O8	O	0.96050 0.46050 0.96050 -1.52700
O8	O	0.03950 0.03950 0.46050 -1.76000
O8	O	0.96050 0.03950 0.53950 -1.64000
O8	O	0.03950 0.96050 0.53950 -1.64000
O8	O	0.96050 0.96050 0.46050 -1.52700
O8	O	0.46050 0.53950 0.53950 -1.64200
O8	O	0.53950 0.46050 0.53950 -1.64200
O8	O	0.53950 0.53950 0.46050 -1.64200
O8	O	0.46050 0.46050 0.46050 -1.64200
O8	O	0.53950 0.96050 0.96050 -1.52700
O8	O	0.46050 0.03950 0.96050 -1.64000
O8	O	0.46050 0.96050 0.03950 -1.64000
O8	O	0.53950 0.03950 0.03950 -1.75900
O8	O	0.96050 0.53950 0.96050 -1.52700
O8	O	0.96050 0.46050 0.03950 -1.64000
O8	O	0.03950 0.46050 0.96050 -1.64000
O8	O	0.03950 0.53950 0.03950 -1.75900
O8	O	0.96050 0.96050 0.53950 -1.52700
O8	O	0.03950 0.96050 0.46050 -1.64000
O8	O	0.96050 0.03950 0.46050 -1.64000
O8	O	0.03950 0.03950 0.53950 -1.75900
O8	O	0.53950 0.46050 0.46050 -1.64200
O8	O	0.46050 0.53950 0.46050 -1.64200
O8	O	0.46050 0.46050 0.53950 -1.64200
O8	O	0.53950 0.53950 0.53950 -1.64200
O8	O	0.38740 0.88740 0.11260 -0.05200
O8	O	0.61260 0.11260 0.11260 -0.07400
O8	O	0.61260 0.88740 0.88740 -0.02900
O9	O	0.38740 0.11260 0.88740 -0.05200
O9	O	0.11260 0.38740 0.88740 -0.05200
O9	O	0.11260 0.61260 0.11260 -0.07400
O9	O	0.88740 0.61260 0.88740 -0.02900
O9	O	0.88740 0.38740 0.11260 -0.05200
O9	O	0.88740 0.11260 0.38740 -0.05200
O9	O	0.11260 0.11260 0.61260 -0.07400
O9	O	0.88740 0.88740 0.61260 -0.02900
O9	O	0.11260 0.88740 0.38740 -0.05200
O9	O	0.38740 0.38740 0.61260 -0.06500
O9	O	0.61260 0.61260 0.61260 -0.06300
O9	O	0.61260 0.38740 0.38740 -0.06500
O9	O	0.38740 0.61260 0.38740 -0.06500
O9	O	0.61260 0.11260 0.88740 -0.05100
O9	O	0.38740 0.88740 0.88740 -0.03000
O9	O	0.38740 0.11260 0.11260 -0.07500
O9	O	0.61260 0.88740 0.11260 -0.05100
O9	O	0.88740 0.61260 0.11260 -0.05100
O9	O	0.88740 0.38740 0.88740 -0.03000
O9	O	0.11260 0.38740 0.11260 -0.07500
O9	O	0.11260 0.61260 0.88740 -0.05100
O9	O	0.11260 0.88740 0.61260 -0.05100
O9	O	0.88740 0.88740 0.38740 -0.03000
O9	O	0.11260 0.11260 0.38740 -0.07500
O9	O	0.88740 0.11260 0.61260 -0.05100
O9	O	0.61260 0.61260 0.38740 -0.06400
O9	O	0.38740 0.38740 0.38740 -0.06600
O9	O	0.38740 0.61260 0.61260 -0.06400
O9	O	0.61260 0.38740 0.61260 -0.06400
O9	O	0.44760 0.05240 0.05240 0.68700
O9	O	0.55240 0.94760 0.05240 0.63300
O9	O	0.55240 0.05240 0.94760 0.63300
O9	O	0.44760 0.94760 0.94760 0.58200
O9	O	0.05240 0.44760 0.05240 0.68700
O9	O	0.05240 0.55240 0.94760 0.63300
O9	O	0.94760 0.55240 0.05240 0.63300
O9	O	0.94760 0.44760 0.94760 0.58200
O9	O	0.05240 0.05240 0.44760 0.68700
O9	O	0.94760 0.05240 0.55240 0.63300
O9	O	0.05240 0.94760 0.55240 0.63300
O9	O	0.94760 0.94760 0.44760 0.58200
O9	O	0.44760 0.55240 0.55240 0.60600
O9	O	0.55240 0.44760 0.55240 0.60600
O9	O	0.55240 0.55240 0.44760 0.60600
O9	O	0.44760 0.44760 0.44760 0.60600
O9	O	0.55240 0.94760 0.94760 0.58100
O9	O	0.44760 0.05240 0.94760 0.63300
O9	O	0.44760 0.94760 0.05240 0.63300
O9	O	0.55240 0.05240 0.05240 0.68700
O9	O	0.94760 0.55240 0.94760 0.58100
O9	O	0.94760 0.44760 0.05240 0.63300
O9	O	0.05240 0.44760 0.94760 0.63300
O9	O	0.05240 0.55240 0.05240 0.68700
O9	O	0.94760 0.94760 0.55240 0.58100
O9	O	0.05240 0.94760 0.44760 0.63300
O9	O	0.94760 0.05240 0.44760 0.63300
O9	O	0.05240 0.05240 0.55240 0.68700
O9	O	0.55240 0.44760 0.44760 0.60600
O9	O	0.44760 0.55240 0.44760 0.60600
O9	O	0.44760 0.44760 0.55240 0.60600
O9	O	0.55240 0.55240 0.55240 0.60600
