data_block_1
_audit_creation_date         'Sun Nov  4 19:00:03 2018'
_audit_creation_method       'generated by GDIS v0.90'


_cell_length_a              8.9720
_cell_length_b             21.7190
_cell_length_c             22.5560
_cell_angle_alpha          88.93
_cell_angle_beta           96.28
_cell_angle_gamma          93.06


_symmetry_space_group_name_H-M   'P 1'
_symmetry_Int_Tables_number       1


loop_
_atom_site_label
_atom_site_fract_x
_atom_site_fract_y
_atom_site_fract_z
Ru    0.1714    0.2041    0.2486
Ru    0.6348    0.1971    0.2619
Zn    0.6200    0.6922    0.2551
Ru    0.8265    0.7533    0.7541
Ru    0.3632    0.7603    0.7370
Zn    0.3717    0.2657    0.7448
