# generated using pymatgen
data_Zr3H16C40(O7F13)2
_symmetry_space_group_name_H-M   'P 1'
_cell_length_a   34.35620000
_cell_length_b   34.35620000
_cell_length_c   15.00940000
_cell_angle_alpha   90.00000000
_cell_angle_beta   90.00000000
_cell_angle_gamma   90.00000000
_symmetry_Int_Tables_number   1
_chemical_formula_structural   Zr3H16C40(O7F13)2
_chemical_formula_sum   'Zr24 H128 C320 O112 F208'
_cell_volume   17716.32245230
_cell_formula_units_Z   8
loop_
 _symmetry_equiv_pos_site_id
 _symmetry_equiv_pos_as_xyz
  1  'x, y, z'
loop_
 _atom_site_type_symbol
 _atom_site_label
 _atom_site_symmetry_multiplicity
 _atom_site_fract_x
 _atom_site_fract_y
 _atom_site_fract_z
 _atom_site_occupancy
  Zr  Zr0  1  0.55045000  0.05045000  0.00000000  1.0
  Zr  Zr1  1  0.94955000  0.44955000  0.00000000  1.0
  Zr  Zr2  1  0.44955000  0.55045000  0.50000000  1.0
  Zr  Zr3  1  0.05045000  0.94955000  0.50000000  1.0
  Zr  Zr4  1  0.44955000  0.94955000  0.00000000  1.0
  Zr  Zr5  1  0.05045000  0.55045000  0.00000000  1.0
  Zr  Zr6  1  0.55045000  0.44955000  0.50000000  1.0
  Zr  Zr7  1  0.94955000  0.05045000  0.50000000  1.0
  Zr  Zr8  1  0.46921000  0.03079000  0.13409000  1.0
  Zr  Zr9  1  0.54146000  0.95854000  0.09876000  1.0
  Zr  Zr10  1  0.03079000  0.46921000  0.13409000  1.0
  Zr  Zr11  1  0.95854000  0.54146000  0.09876000  1.0
  Zr  Zr12  1  0.46921000  0.46921000  0.63409000  1.0
  Zr  Zr13  1  0.54146000  0.54146000  0.59876000  1.0
  Zr  Zr14  1  0.03079000  0.03079000  0.63409000  1.0
  Zr  Zr15  1  0.95854000  0.95854000  0.59876000  1.0
  Zr  Zr16  1  0.53079000  0.53079000  0.36591000  1.0
  Zr  Zr17  1  0.45854000  0.45854000  0.40124000  1.0
  Zr  Zr18  1  0.96921000  0.96921000  0.36591000  1.0
  Zr  Zr19  1  0.04146000  0.04146000  0.40124000  1.0
  Zr  Zr20  1  0.53079000  0.96921000  0.86591000  1.0
  Zr  Zr21  1  0.45854000  0.04146000  0.90124000  1.0
  Zr  Zr22  1  0.96921000  0.53079000  0.86591000  1.0
  Zr  Zr23  1  0.04146000  0.45854000  0.90124000  1.0
  H  H24  1  0.56590000  0.16860000  0.10750000  1.0
  H  H25  1  0.49160000  0.19840000  0.35980000  1.0
  H  H26  1  0.49080000  0.13530000  0.30120000  1.0
  H  H27  1  0.56580000  0.32900000  0.42570000  1.0
  H  H28  1  0.47100000  0.33920000  0.26670000  1.0
  H  H29  1  0.47720000  0.27380000  0.22530000  1.0
  H  H30  1  0.56680000  0.23170000  0.16610000  1.0
  H  H31  1  0.57200000  0.26360000  0.38440000  1.0
  H  H32  1  0.93410000  0.33140000  0.10750000  1.0
  H  H33  1  0.00840000  0.30160000  0.35980000  1.0
  H  H34  1  0.00920000  0.36470000  0.30120000  1.0
  H  H35  1  0.93420000  0.17100000  0.42570000  1.0
  H  H36  1  0.02900000  0.16080000  0.26670000  1.0
  H  H37  1  0.02280000  0.22620000  0.22530000  1.0
  H  H38  1  0.93320000  0.26830000  0.16610000  1.0
  H  H39  1  0.92800000  0.23640000  0.38440000  1.0
  H  H40  1  0.33140000  0.56590000  0.60750000  1.0
  H  H41  1  0.30160000  0.49160000  0.85980000  1.0
  H  H42  1  0.36470000  0.49080000  0.80120000  1.0
  H  H43  1  0.17100000  0.56580000  0.92570000  1.0
  H  H44  1  0.16080000  0.47100000  0.76670000  1.0
  H  H45  1  0.22620000  0.47720000  0.72530000  1.0
  H  H46  1  0.26830000  0.56680000  0.66610000  1.0
  H  H47  1  0.23640000  0.57200000  0.88440000  1.0
  H  H48  1  0.16860000  0.93410000  0.60750000  1.0
  H  H49  1  0.19840000  0.00840000  0.85980000  1.0
  H  H50  1  0.13530000  0.00920000  0.80120000  1.0
  H  H51  1  0.32900000  0.93420000  0.92570000  1.0
  H  H52  1  0.33920000  0.02900000  0.76670000  1.0
  H  H53  1  0.27380000  0.02280000  0.72530000  1.0
  H  H54  1  0.23170000  0.93320000  0.66610000  1.0
  H  H55  1  0.26360000  0.92800000  0.88440000  1.0
  H  H56  1  0.43410000  0.66860000  0.39250000  1.0
  H  H57  1  0.50840000  0.69840000  0.14020000  1.0
  H  H58  1  0.50920000  0.63530000  0.19880000  1.0
  H  H59  1  0.43420000  0.82900000  0.07430000  1.0
  H  H60  1  0.52900000  0.83920000  0.23330000  1.0
  H  H61  1  0.52280000  0.77380000  0.27470000  1.0
  H  H62  1  0.43320000  0.73170000  0.33390000  1.0
  H  H63  1  0.42800000  0.76360000  0.11560000  1.0
  H  H64  1  0.06590000  0.83140000  0.39250000  1.0
  H  H65  1  0.99160000  0.80160000  0.14020000  1.0
  H  H66  1  0.99080000  0.86470000  0.19880000  1.0
  H  H67  1  0.06580000  0.67100000  0.07430000  1.0
  H  H68  1  0.97100000  0.66080000  0.23330000  1.0
  H  H69  1  0.97720000  0.72620000  0.27470000  1.0
  H  H70  1  0.06680000  0.76830000  0.33390000  1.0
  H  H71  1  0.07200000  0.73640000  0.11560000  1.0
  H  H72  1  0.66860000  0.06590000  0.89250000  1.0
  H  H73  1  0.69840000  0.99160000  0.64020000  1.0
  H  H74  1  0.63530000  0.99080000  0.69880000  1.0
  H  H75  1  0.82900000  0.06580000  0.57430000  1.0
  H  H76  1  0.83920000  0.97100000  0.73330000  1.0
  H  H77  1  0.77380000  0.97720000  0.77470000  1.0
  H  H78  1  0.73170000  0.06680000  0.83390000  1.0
  H  H79  1  0.76360000  0.07200000  0.61560000  1.0
  H  H80  1  0.83140000  0.43410000  0.89250000  1.0
  H  H81  1  0.80160000  0.50840000  0.64020000  1.0
  H  H82  1  0.86470000  0.50920000  0.69880000  1.0
  H  H83  1  0.67100000  0.43420000  0.57430000  1.0
  H  H84  1  0.66080000  0.52900000  0.73330000  1.0
  H  H85  1  0.72620000  0.52280000  0.77470000  1.0
  H  H86  1  0.76830000  0.43320000  0.83390000  1.0
  H  H87  1  0.73640000  0.42800000  0.61560000  1.0
  H  H88  1  0.43410000  0.83140000  0.89250000  1.0
  H  H89  1  0.50840000  0.80160000  0.64020000  1.0
  H  H90  1  0.50920000  0.86470000  0.69880000  1.0
  H  H91  1  0.43420000  0.67100000  0.57430000  1.0
  H  H92  1  0.52900000  0.66080000  0.73330000  1.0
  H  H93  1  0.52280000  0.72620000  0.77470000  1.0
  H  H94  1  0.43320000  0.76830000  0.83390000  1.0
  H  H95  1  0.42800000  0.73640000  0.61560000  1.0
  H  H96  1  0.06590000  0.66860000  0.89250000  1.0
  H  H97  1  0.99160000  0.69840000  0.64020000  1.0
  H  H98  1  0.99080000  0.63530000  0.69880000  1.0
  H  H99  1  0.06580000  0.82900000  0.57430000  1.0
  H  H100  1  0.97100000  0.83920000  0.73330000  1.0
  H  H101  1  0.97720000  0.77380000  0.77470000  1.0
  H  H102  1  0.06680000  0.73170000  0.83390000  1.0
  H  H103  1  0.07200000  0.76360000  0.61560000  1.0
  H  H104  1  0.66860000  0.43410000  0.39250000  1.0
  H  H105  1  0.69840000  0.50840000  0.14020000  1.0
  H  H106  1  0.63530000  0.50920000  0.19880000  1.0
  H  H107  1  0.82900000  0.43420000  0.07430000  1.0
  H  H108  1  0.83920000  0.52900000  0.23330000  1.0
  H  H109  1  0.77380000  0.52280000  0.27470000  1.0
  H  H110  1  0.73170000  0.43320000  0.33390000  1.0
  H  H111  1  0.76360000  0.42800000  0.11560000  1.0
  H  H112  1  0.83140000  0.06590000  0.39250000  1.0
  H  H113  1  0.80160000  0.99160000  0.14020000  1.0
  H  H114  1  0.86470000  0.99080000  0.19880000  1.0
  H  H115  1  0.67100000  0.06580000  0.07430000  1.0
  H  H116  1  0.66080000  0.97100000  0.23330000  1.0
  H  H117  1  0.72620000  0.97720000  0.27470000  1.0
  H  H118  1  0.76830000  0.06680000  0.33390000  1.0
  H  H119  1  0.73640000  0.07200000  0.11560000  1.0
  H  H120  1  0.56590000  0.33140000  0.60750000  1.0
  H  H121  1  0.49160000  0.30160000  0.85980000  1.0
  H  H122  1  0.49080000  0.36470000  0.80120000  1.0
  H  H123  1  0.56580000  0.17100000  0.92570000  1.0
  H  H124  1  0.47100000  0.16080000  0.76670000  1.0
  H  H125  1  0.47720000  0.22620000  0.72530000  1.0
  H  H126  1  0.56680000  0.26830000  0.66610000  1.0
  H  H127  1  0.57200000  0.23640000  0.88440000  1.0
  H  H128  1  0.93410000  0.16860000  0.60750000  1.0
  H  H129  1  0.00840000  0.19840000  0.85980000  1.0
  H  H130  1  0.00920000  0.13530000  0.80120000  1.0
  H  H131  1  0.93420000  0.32900000  0.92570000  1.0
  H  H132  1  0.02900000  0.33920000  0.76670000  1.0
  H  H133  1  0.02280000  0.27380000  0.72530000  1.0
  H  H134  1  0.93320000  0.23170000  0.66610000  1.0
  H  H135  1  0.92800000  0.26360000  0.88440000  1.0
  H  H136  1  0.33140000  0.93410000  0.10750000  1.0
  H  H137  1  0.30160000  0.00840000  0.35980000  1.0
  H  H138  1  0.36470000  0.00920000  0.30120000  1.0
  H  H139  1  0.17100000  0.93420000  0.42570000  1.0
  H  H140  1  0.16080000  0.02900000  0.26670000  1.0
  H  H141  1  0.22620000  0.02280000  0.22530000  1.0
  H  H142  1  0.26830000  0.93320000  0.16610000  1.0
  H  H143  1  0.23640000  0.92800000  0.38440000  1.0
  H  H144  1  0.16860000  0.56590000  0.10750000  1.0
  H  H145  1  0.19840000  0.49160000  0.35980000  1.0
  H  H146  1  0.13530000  0.49080000  0.30120000  1.0
  H  H147  1  0.32900000  0.56580000  0.42570000  1.0
  H  H148  1  0.33920000  0.47100000  0.26670000  1.0
  H  H149  1  0.27380000  0.47720000  0.22530000  1.0
  H  H150  1  0.23170000  0.56680000  0.16610000  1.0
  H  H151  1  0.26360000  0.57200000  0.38440000  1.0
  C  C152  1  0.52630000  0.10660000  0.15630000  1.0
  C  C153  1  0.52830000  0.14600000  0.19890000  1.0
  C  C154  1  0.55090000  0.17470000  0.15870000  1.0
  C  C155  1  0.55130000  0.21220000  0.19350000  1.0
  C  C156  1  0.52930000  0.22100000  0.26840000  1.0
  C  C157  1  0.50670000  0.19240000  0.30860000  1.0
  C  C158  1  0.50620000  0.15490000  0.27380000  1.0
  C  C159  1  0.57690000  0.24230000  0.14600000  1.0
  C  C160  1  0.52520000  0.26260000  0.30100000  1.0
  C  C161  1  0.55150000  0.27900000  0.36050000  1.0
  C  C162  1  0.54780000  0.31780000  0.38510000  1.0
  C  C163  1  0.51780000  0.34020000  0.35010000  1.0
  C  C164  1  0.49150000  0.32380000  0.29060000  1.0
  C  C165  1  0.49520000  0.28500000  0.26600000  1.0
  C  C166  1  0.58330000  0.25770000  0.39350000  1.0
  C  C167  1  0.51540000  0.38150000  0.38260000  1.0
  C  C168  1  0.46730000  0.98600000  0.46490000  1.0
  C  C169  1  0.48170000  0.20060000  0.39100000  1.0
  C  C170  1  0.47340000  0.27140000  0.19300000  1.0
  C  C171  1  0.97370000  0.39340000  0.15630000  1.0
  C  C172  1  0.97170000  0.35400000  0.19890000  1.0
  C  C173  1  0.94910000  0.32530000  0.15870000  1.0
  C  C174  1  0.94870000  0.28780000  0.19350000  1.0
  C  C175  1  0.97070000  0.27900000  0.26840000  1.0
  C  C176  1  0.99330000  0.30760000  0.30860000  1.0
  C  C177  1  0.99380000  0.34510000  0.27380000  1.0
  C  C178  1  0.92310000  0.25770000  0.14600000  1.0
  C  C179  1  0.97480000  0.23740000  0.30100000  1.0
  C  C180  1  0.94850000  0.22100000  0.36050000  1.0
  C  C181  1  0.95220000  0.18220000  0.38510000  1.0
  C  C182  1  0.98220000  0.15980000  0.35010000  1.0
  C  C183  1  0.00850000  0.17620000  0.29060000  1.0
  C  C184  1  0.00480000  0.21500000  0.26600000  1.0
  C  C185  1  0.91670000  0.24230000  0.39350000  1.0
  C  C186  1  0.98460000  0.11850000  0.38260000  1.0
  C  C187  1  0.03270000  0.51400000  0.46490000  1.0
  C  C188  1  0.01830000  0.29940000  0.39100000  1.0
  C  C189  1  0.02660000  0.22860000  0.19300000  1.0
  C  C190  1  0.39340000  0.52630000  0.65630000  1.0
  C  C191  1  0.35400000  0.52830000  0.69890000  1.0
  C  C192  1  0.32530000  0.55090000  0.65870000  1.0
  C  C193  1  0.28780000  0.55130000  0.69350000  1.0
  C  C194  1  0.27900000  0.52930000  0.76840000  1.0
  C  C195  1  0.30760000  0.50670000  0.80860000  1.0
  C  C196  1  0.34510000  0.50620000  0.77380000  1.0
  C  C197  1  0.25770000  0.57690000  0.64600000  1.0
  C  C198  1  0.23740000  0.52520000  0.80100000  1.0
  C  C199  1  0.22100000  0.55150000  0.86050000  1.0
  C  C200  1  0.18220000  0.54780000  0.88510000  1.0
  C  C201  1  0.15980000  0.51780000  0.85010000  1.0
  C  C202  1  0.17620000  0.49150000  0.79060000  1.0
  C  C203  1  0.21500000  0.49520000  0.76600000  1.0
  C  C204  1  0.24230000  0.58330000  0.89350000  1.0
  C  C205  1  0.11850000  0.51540000  0.88260000  1.0
  C  C206  1  0.51400000  0.46730000  0.96490000  1.0
  C  C207  1  0.29940000  0.48170000  0.89100000  1.0
  C  C208  1  0.22860000  0.47340000  0.69300000  1.0
  C  C209  1  0.10660000  0.97370000  0.65630000  1.0
  C  C210  1  0.14600000  0.97170000  0.69890000  1.0
  C  C211  1  0.17470000  0.94910000  0.65870000  1.0
  C  C212  1  0.21220000  0.94870000  0.69350000  1.0
  C  C213  1  0.22100000  0.97070000  0.76840000  1.0
  C  C214  1  0.19240000  0.99330000  0.80860000  1.0
  C  C215  1  0.15490000  0.99380000  0.77380000  1.0
  C  C216  1  0.24230000  0.92310000  0.64600000  1.0
  C  C217  1  0.26260000  0.97480000  0.80100000  1.0
  C  C218  1  0.27900000  0.94850000  0.86050000  1.0
  C  C219  1  0.31780000  0.95220000  0.88510000  1.0
  C  C220  1  0.34020000  0.98220000  0.85010000  1.0
  C  C221  1  0.32380000  0.00850000  0.79060000  1.0
  C  C222  1  0.28500000  0.00480000  0.76600000  1.0
  C  C223  1  0.25770000  0.91670000  0.89350000  1.0
  C  C224  1  0.38150000  0.98460000  0.88260000  1.0
  C  C225  1  0.98600000  0.03270000  0.96490000  1.0
  C  C226  1  0.20060000  0.01830000  0.89100000  1.0
  C  C227  1  0.27140000  0.02660000  0.69300000  1.0
  C  C228  1  0.47370000  0.60660000  0.34370000  1.0
  C  C229  1  0.47170000  0.64600000  0.30110000  1.0
  C  C230  1  0.44910000  0.67470000  0.34130000  1.0
  C  C231  1  0.44870000  0.71220000  0.30650000  1.0
  C  C232  1  0.47070000  0.72100000  0.23160000  1.0
  C  C233  1  0.49330000  0.69240000  0.19140000  1.0
  C  C234  1  0.49380000  0.65490000  0.22620000  1.0
  C  C235  1  0.42310000  0.74230000  0.35400000  1.0
  C  C236  1  0.47480000  0.76260000  0.19900000  1.0
  C  C237  1  0.44850000  0.77900000  0.13950000  1.0
  C  C238  1  0.45220000  0.81780000  0.11490000  1.0
  C  C239  1  0.48220000  0.84020000  0.14990000  1.0
  C  C240  1  0.50850000  0.82380000  0.20940000  1.0
  C  C241  1  0.50480000  0.78500000  0.23400000  1.0
  C  C242  1  0.41670000  0.75770000  0.10650000  1.0
  C  C243  1  0.48460000  0.88150000  0.11740000  1.0
  C  C244  1  0.53270000  0.48600000  0.03510000  1.0
  C  C245  1  0.51830000  0.70060000  0.10900000  1.0
  C  C246  1  0.52660000  0.77140000  0.30700000  1.0
  C  C247  1  0.02630000  0.89340000  0.34370000  1.0
  C  C248  1  0.02830000  0.85400000  0.30110000  1.0
  C  C249  1  0.05090000  0.82530000  0.34130000  1.0
  C  C250  1  0.05130000  0.78780000  0.30650000  1.0
  C  C251  1  0.02930000  0.77900000  0.23160000  1.0
  C  C252  1  0.00670000  0.80760000  0.19140000  1.0
  C  C253  1  0.00620000  0.84510000  0.22620000  1.0
  C  C254  1  0.07690000  0.75770000  0.35400000  1.0
  C  C255  1  0.02520000  0.73740000  0.19900000  1.0
  C  C256  1  0.05150000  0.72100000  0.13950000  1.0
  C  C257  1  0.04780000  0.68220000  0.11490000  1.0
  C  C258  1  0.01780000  0.65980000  0.14990000  1.0
  C  C259  1  0.99150000  0.67620000  0.20940000  1.0
  C  C260  1  0.99520000  0.71500000  0.23400000  1.0
  C  C261  1  0.08330000  0.74230000  0.10650000  1.0
  C  C262  1  0.01540000  0.61850000  0.11740000  1.0
  C  C263  1  0.96730000  0.01400000  0.03510000  1.0
  C  C264  1  0.98170000  0.79940000  0.10900000  1.0
  C  C265  1  0.97340000  0.72860000  0.30700000  1.0
  C  C266  1  0.60660000  0.02630000  0.84370000  1.0
  C  C267  1  0.64600000  0.02830000  0.80110000  1.0
  C  C268  1  0.67470000  0.05090000  0.84130000  1.0
  C  C269  1  0.71220000  0.05130000  0.80650000  1.0
  C  C270  1  0.72100000  0.02930000  0.73160000  1.0
  C  C271  1  0.69240000  0.00670000  0.69140000  1.0
  C  C272  1  0.65490000  0.00620000  0.72620000  1.0
  C  C273  1  0.74230000  0.07690000  0.85400000  1.0
  C  C274  1  0.76260000  0.02520000  0.69900000  1.0
  C  C275  1  0.77900000  0.05150000  0.63950000  1.0
  C  C276  1  0.81780000  0.04780000  0.61490000  1.0
  C  C277  1  0.84020000  0.01780000  0.64990000  1.0
  C  C278  1  0.82380000  0.99150000  0.70940000  1.0
  C  C279  1  0.78500000  0.99520000  0.73400000  1.0
  C  C280  1  0.75770000  0.08330000  0.60650000  1.0
  C  C281  1  0.88150000  0.01540000  0.61740000  1.0
  C  C282  1  0.48600000  0.96730000  0.53510000  1.0
  C  C283  1  0.70060000  0.98170000  0.60900000  1.0
  C  C284  1  0.77140000  0.97340000  0.80700000  1.0
  C  C285  1  0.89340000  0.47370000  0.84370000  1.0
  C  C286  1  0.85400000  0.47170000  0.80110000  1.0
  C  C287  1  0.82530000  0.44910000  0.84130000  1.0
  C  C288  1  0.78780000  0.44870000  0.80650000  1.0
  C  C289  1  0.77900000  0.47070000  0.73160000  1.0
  C  C290  1  0.80760000  0.49330000  0.69140000  1.0
  C  C291  1  0.84510000  0.49380000  0.72620000  1.0
  C  C292  1  0.75770000  0.42310000  0.85400000  1.0
  C  C293  1  0.73740000  0.47480000  0.69900000  1.0
  C  C294  1  0.72100000  0.44850000  0.63950000  1.0
  C  C295  1  0.68220000  0.45220000  0.61490000  1.0
  C  C296  1  0.65980000  0.48220000  0.64990000  1.0
  C  C297  1  0.67620000  0.50850000  0.70940000  1.0
  C  C298  1  0.71500000  0.50480000  0.73400000  1.0
  C  C299  1  0.74230000  0.41670000  0.60650000  1.0
  C  C300  1  0.61850000  0.48460000  0.61740000  1.0
  C  C301  1  0.01400000  0.53270000  0.53510000  1.0
  C  C302  1  0.79940000  0.51830000  0.60900000  1.0
  C  C303  1  0.72860000  0.52660000  0.80700000  1.0
  C  C304  1  0.47370000  0.89340000  0.84370000  1.0
  C  C305  1  0.47170000  0.85400000  0.80110000  1.0
  C  C306  1  0.44910000  0.82530000  0.84130000  1.0
  C  C307  1  0.44870000  0.78780000  0.80650000  1.0
  C  C308  1  0.47070000  0.77900000  0.73160000  1.0
  C  C309  1  0.49330000  0.80760000  0.69140000  1.0
  C  C310  1  0.49380000  0.84510000  0.72620000  1.0
  C  C311  1  0.42310000  0.75770000  0.85400000  1.0
  C  C312  1  0.47480000  0.73740000  0.69900000  1.0
  C  C313  1  0.44850000  0.72100000  0.63950000  1.0
  C  C314  1  0.45220000  0.68220000  0.61490000  1.0
  C  C315  1  0.48220000  0.65980000  0.64990000  1.0
  C  C316  1  0.50850000  0.67620000  0.70940000  1.0
  C  C317  1  0.50480000  0.71500000  0.73400000  1.0
  C  C318  1  0.41670000  0.74230000  0.60650000  1.0
  C  C319  1  0.48460000  0.61850000  0.61740000  1.0
  C  C320  1  0.53270000  0.01400000  0.53510000  1.0
  C  C321  1  0.51830000  0.79940000  0.60900000  1.0
  C  C322  1  0.52660000  0.72860000  0.80700000  1.0
  C  C323  1  0.02630000  0.60660000  0.84370000  1.0
  C  C324  1  0.02830000  0.64600000  0.80110000  1.0
  C  C325  1  0.05090000  0.67470000  0.84130000  1.0
  C  C326  1  0.05130000  0.71220000  0.80650000  1.0
  C  C327  1  0.02930000  0.72100000  0.73160000  1.0
  C  C328  1  0.00670000  0.69240000  0.69140000  1.0
  C  C329  1  0.00620000  0.65490000  0.72620000  1.0
  C  C330  1  0.07690000  0.74230000  0.85400000  1.0
  C  C331  1  0.02520000  0.76260000  0.69900000  1.0
  C  C332  1  0.05150000  0.77900000  0.63950000  1.0
  C  C333  1  0.04780000  0.81780000  0.61490000  1.0
  C  C334  1  0.01780000  0.84020000  0.64990000  1.0
  C  C335  1  0.99150000  0.82380000  0.70940000  1.0
  C  C336  1  0.99520000  0.78500000  0.73400000  1.0
  C  C337  1  0.08330000  0.75770000  0.60650000  1.0
  C  C338  1  0.01540000  0.88150000  0.61740000  1.0
  C  C339  1  0.96730000  0.48600000  0.53510000  1.0
  C  C340  1  0.98170000  0.70060000  0.60900000  1.0
  C  C341  1  0.97340000  0.77140000  0.80700000  1.0
  C  C342  1  0.60660000  0.47370000  0.34370000  1.0
  C  C343  1  0.64600000  0.47170000  0.30110000  1.0
  C  C344  1  0.67470000  0.44910000  0.34130000  1.0
  C  C345  1  0.71220000  0.44870000  0.30650000  1.0
  C  C346  1  0.72100000  0.47070000  0.23160000  1.0
  C  C347  1  0.69240000  0.49330000  0.19140000  1.0
  C  C348  1  0.65490000  0.49380000  0.22620000  1.0
  C  C349  1  0.74230000  0.42310000  0.35400000  1.0
  C  C350  1  0.76260000  0.47480000  0.19900000  1.0
  C  C351  1  0.77900000  0.44850000  0.13950000  1.0
  C  C352  1  0.81780000  0.45220000  0.11490000  1.0
  C  C353  1  0.84020000  0.48220000  0.14990000  1.0
  C  C354  1  0.82380000  0.50850000  0.20940000  1.0
  C  C355  1  0.78500000  0.50480000  0.23400000  1.0
  C  C356  1  0.75770000  0.41670000  0.10650000  1.0
  C  C357  1  0.88150000  0.48460000  0.11740000  1.0
  C  C358  1  0.48600000  0.53270000  0.03510000  1.0
  C  C359  1  0.70060000  0.51830000  0.10900000  1.0
  C  C360  1  0.77140000  0.52660000  0.30700000  1.0
  C  C361  1  0.89340000  0.02630000  0.34370000  1.0
  C  C362  1  0.85400000  0.02830000  0.30110000  1.0
  C  C363  1  0.82530000  0.05090000  0.34130000  1.0
  C  C364  1  0.78780000  0.05130000  0.30650000  1.0
  C  C365  1  0.77900000  0.02930000  0.23160000  1.0
  C  C366  1  0.80760000  0.00670000  0.19140000  1.0
  C  C367  1  0.84510000  0.00620000  0.22620000  1.0
  C  C368  1  0.75770000  0.07690000  0.35400000  1.0
  C  C369  1  0.73740000  0.02520000  0.19900000  1.0
  C  C370  1  0.72100000  0.05150000  0.13950000  1.0
  C  C371  1  0.68220000  0.04780000  0.11490000  1.0
  C  C372  1  0.65980000  0.01780000  0.14990000  1.0
  C  C373  1  0.67620000  0.99150000  0.20940000  1.0
  C  C374  1  0.71500000  0.99520000  0.23400000  1.0
  C  C375  1  0.74230000  0.08330000  0.10650000  1.0
  C  C376  1  0.61850000  0.01540000  0.11740000  1.0
  C  C377  1  0.01400000  0.96730000  0.03510000  1.0
  C  C378  1  0.79940000  0.98170000  0.10900000  1.0
  C  C379  1  0.72860000  0.97340000  0.30700000  1.0
  C  C380  1  0.52630000  0.39340000  0.65630000  1.0
  C  C381  1  0.52830000  0.35400000  0.69890000  1.0
  C  C382  1  0.55090000  0.32530000  0.65870000  1.0
  C  C383  1  0.55130000  0.28780000  0.69350000  1.0
  C  C384  1  0.52930000  0.27900000  0.76840000  1.0
  C  C385  1  0.50670000  0.30760000  0.80860000  1.0
  C  C386  1  0.50620000  0.34510000  0.77380000  1.0
  C  C387  1  0.57690000  0.25770000  0.64600000  1.0
  C  C388  1  0.52520000  0.23740000  0.80100000  1.0
  C  C389  1  0.55150000  0.22100000  0.86050000  1.0
  C  C390  1  0.54780000  0.18220000  0.88510000  1.0
  C  C391  1  0.51780000  0.15980000  0.85010000  1.0
  C  C392  1  0.49150000  0.17620000  0.79060000  1.0
  C  C393  1  0.49520000  0.21500000  0.76600000  1.0
  C  C394  1  0.58330000  0.24230000  0.89350000  1.0
  C  C395  1  0.51540000  0.11850000  0.88260000  1.0
  C  C396  1  0.46730000  0.51400000  0.96490000  1.0
  C  C397  1  0.48170000  0.29940000  0.89100000  1.0
  C  C398  1  0.47340000  0.22860000  0.69300000  1.0
  C  C399  1  0.97370000  0.10660000  0.65630000  1.0
  C  C400  1  0.97170000  0.14600000  0.69890000  1.0
  C  C401  1  0.94910000  0.17470000  0.65870000  1.0
  C  C402  1  0.94870000  0.21220000  0.69350000  1.0
  C  C403  1  0.97070000  0.22100000  0.76840000  1.0
  C  C404  1  0.99330000  0.19240000  0.80860000  1.0
  C  C405  1  0.99380000  0.15490000  0.77380000  1.0
  C  C406  1  0.92310000  0.24230000  0.64600000  1.0
  C  C407  1  0.97480000  0.26260000  0.80100000  1.0
  C  C408  1  0.94850000  0.27900000  0.86050000  1.0
  C  C409  1  0.95220000  0.31780000  0.88510000  1.0
  C  C410  1  0.98220000  0.34020000  0.85010000  1.0
  C  C411  1  0.00850000  0.32380000  0.79060000  1.0
  C  C412  1  0.00480000  0.28500000  0.76600000  1.0
  C  C413  1  0.91670000  0.25770000  0.89350000  1.0
  C  C414  1  0.98460000  0.38150000  0.88260000  1.0
  C  C415  1  0.03270000  0.98600000  0.96490000  1.0
  C  C416  1  0.01830000  0.20060000  0.89100000  1.0
  C  C417  1  0.02660000  0.27140000  0.69300000  1.0
  C  C418  1  0.39340000  0.97370000  0.15630000  1.0
  C  C419  1  0.35400000  0.97170000  0.19890000  1.0
  C  C420  1  0.32530000  0.94910000  0.15870000  1.0
  C  C421  1  0.28780000  0.94870000  0.19350000  1.0
  C  C422  1  0.27900000  0.97070000  0.26840000  1.0
  C  C423  1  0.30760000  0.99330000  0.30860000  1.0
  C  C424  1  0.34510000  0.99380000  0.27380000  1.0
  C  C425  1  0.25770000  0.92310000  0.14600000  1.0
  C  C426  1  0.23740000  0.97480000  0.30100000  1.0
  C  C427  1  0.22100000  0.94850000  0.36050000  1.0
  C  C428  1  0.18220000  0.95220000  0.38510000  1.0
  C  C429  1  0.15980000  0.98220000  0.35010000  1.0
  C  C430  1  0.17620000  0.00850000  0.29060000  1.0
  C  C431  1  0.21500000  0.00480000  0.26600000  1.0
  C  C432  1  0.24230000  0.91670000  0.39350000  1.0
  C  C433  1  0.11850000  0.98460000  0.38260000  1.0
  C  C434  1  0.51400000  0.03270000  0.46490000  1.0
  C  C435  1  0.29940000  0.01830000  0.39100000  1.0
  C  C436  1  0.22860000  0.02660000  0.19300000  1.0
  C  C437  1  0.10660000  0.52630000  0.15630000  1.0
  C  C438  1  0.14600000  0.52830000  0.19890000  1.0
  C  C439  1  0.17470000  0.55090000  0.15870000  1.0
  C  C440  1  0.21220000  0.55130000  0.19350000  1.0
  C  C441  1  0.22100000  0.52930000  0.26840000  1.0
  C  C442  1  0.19240000  0.50670000  0.30860000  1.0
  C  C443  1  0.15490000  0.50620000  0.27380000  1.0
  C  C444  1  0.24230000  0.57690000  0.14600000  1.0
  C  C445  1  0.26260000  0.52520000  0.30100000  1.0
  C  C446  1  0.27900000  0.55150000  0.36050000  1.0
  C  C447  1  0.31780000  0.54780000  0.38510000  1.0
  C  C448  1  0.34020000  0.51780000  0.35010000  1.0
  C  C449  1  0.32380000  0.49150000  0.29060000  1.0
  C  C450  1  0.28500000  0.49520000  0.26600000  1.0
  C  C451  1  0.25770000  0.58330000  0.39350000  1.0
  C  C452  1  0.38150000  0.51540000  0.38260000  1.0
  C  C453  1  0.98600000  0.46730000  0.46490000  1.0
  C  C454  1  0.20060000  0.48170000  0.39100000  1.0
  C  C455  1  0.27140000  0.47340000  0.19300000  1.0
  C  C456  1  0.46470000  0.03530000  0.33760000  1.0
  C  C457  1  0.47970000  0.02030000  0.42500000  1.0
  C  C458  1  0.03530000  0.46470000  0.33760000  1.0
  C  C459  1  0.02030000  0.47970000  0.42500000  1.0
  C  C460  1  0.46470000  0.46470000  0.83760000  1.0
  C  C461  1  0.47970000  0.47970000  0.92500000  1.0
  C  C462  1  0.03530000  0.03530000  0.83760000  1.0
  C  C463  1  0.02030000  0.02030000  0.92500000  1.0
  C  C464  1  0.53530000  0.53530000  0.16240000  1.0
  C  C465  1  0.52030000  0.52030000  0.07500000  1.0
  C  C466  1  0.96470000  0.96470000  0.16240000  1.0
  C  C467  1  0.97970000  0.97970000  0.07500000  1.0
  C  C468  1  0.53530000  0.96470000  0.66240000  1.0
  C  C469  1  0.52030000  0.97970000  0.57500000  1.0
  C  C470  1  0.96470000  0.53530000  0.66240000  1.0
  C  C471  1  0.97970000  0.52030000  0.57500000  1.0
  O  O472  1  0.49770000  0.08530000  0.18550000  1.0
  O  O473  1  0.55030000  0.09790000  0.10270000  1.0
  O  O474  1  0.48420000  0.40020000  0.36040000  1.0
  O  O475  1  0.54260000  0.39510000  0.41940000  1.0
  O  O476  1  0.53020000  0.02010000  0.11750000  1.0
  O  O477  1  0.43930000  0.01150000  0.01680000  1.0
  O  O478  1  0.00230000  0.41470000  0.18550000  1.0
  O  O479  1  0.94970000  0.40210000  0.10270000  1.0
  O  O480  1  0.01580000  0.09980000  0.36040000  1.0
  O  O481  1  0.95740000  0.10490000  0.41940000  1.0
  O  O482  1  0.96980000  0.47990000  0.11750000  1.0
  O  O483  1  0.06070000  0.48850000  0.01680000  1.0
  O  O484  1  0.41470000  0.49770000  0.68550000  1.0
  O  O485  1  0.40210000  0.55030000  0.60270000  1.0
  O  O486  1  0.09980000  0.48420000  0.86040000  1.0
  O  O487  1  0.10490000  0.54260000  0.91940000  1.0
  O  O488  1  0.47990000  0.53020000  0.61750000  1.0
  O  O489  1  0.48850000  0.43930000  0.51680000  1.0
  O  O490  1  0.08530000  0.00230000  0.68550000  1.0
  O  O491  1  0.09790000  0.94970000  0.60270000  1.0
  O  O492  1  0.40020000  0.01580000  0.86040000  1.0
  O  O493  1  0.39510000  0.95740000  0.91940000  1.0
  O  O494  1  0.02010000  0.96980000  0.61750000  1.0
  O  O495  1  0.01150000  0.06070000  0.51680000  1.0
  O  O496  1  0.50230000  0.58530000  0.31450000  1.0
  O  O497  1  0.44970000  0.59790000  0.39730000  1.0
  O  O498  1  0.51580000  0.90020000  0.13960000  1.0
  O  O499  1  0.45740000  0.89510000  0.08060000  1.0
  O  O500  1  0.46980000  0.52010000  0.38250000  1.0
  O  O501  1  0.56070000  0.51150000  0.48320000  1.0
  O  O502  1  0.99770000  0.91470000  0.31450000  1.0
  O  O503  1  0.05030000  0.90210000  0.39730000  1.0
  O  O504  1  0.98420000  0.59980000  0.13960000  1.0
  O  O505  1  0.04260000  0.60490000  0.08060000  1.0
  O  O506  1  0.03020000  0.97990000  0.38250000  1.0
  O  O507  1  0.93930000  0.98850000  0.48320000  1.0
  O  O508  1  0.58530000  0.99770000  0.81450000  1.0
  O  O509  1  0.59790000  0.05030000  0.89730000  1.0
  O  O510  1  0.90020000  0.98420000  0.63960000  1.0
  O  O511  1  0.89510000  0.04260000  0.58060000  1.0
  O  O512  1  0.52010000  0.03020000  0.88250000  1.0
  O  O513  1  0.51150000  0.93930000  0.98320000  1.0
  O  O514  1  0.91470000  0.50230000  0.81450000  1.0
  O  O515  1  0.90210000  0.44970000  0.89730000  1.0
  O  O516  1  0.59980000  0.51580000  0.63960000  1.0
  O  O517  1  0.60490000  0.45740000  0.58060000  1.0
  O  O518  1  0.97990000  0.46980000  0.88250000  1.0
  O  O519  1  0.98850000  0.56070000  0.98320000  1.0
  O  O520  1  0.50230000  0.91470000  0.81450000  1.0
  O  O521  1  0.44970000  0.90210000  0.89730000  1.0
  O  O522  1  0.51580000  0.59980000  0.63960000  1.0
  O  O523  1  0.45740000  0.60490000  0.58060000  1.0
  O  O524  1  0.46980000  0.97990000  0.88250000  1.0
  O  O525  1  0.56070000  0.98850000  0.98320000  1.0
  O  O526  1  0.99770000  0.58530000  0.81450000  1.0
  O  O527  1  0.05030000  0.59790000  0.89730000  1.0
  O  O528  1  0.98420000  0.90020000  0.63960000  1.0
  O  O529  1  0.04260000  0.89510000  0.58060000  1.0
  O  O530  1  0.03020000  0.52010000  0.88250000  1.0
  O  O531  1  0.93930000  0.51150000  0.98320000  1.0
  O  O532  1  0.58530000  0.50230000  0.31450000  1.0
  O  O533  1  0.59790000  0.44970000  0.39730000  1.0
  O  O534  1  0.90020000  0.51580000  0.13960000  1.0
  O  O535  1  0.89510000  0.45740000  0.08060000  1.0
  O  O536  1  0.52010000  0.46980000  0.38250000  1.0
  O  O537  1  0.51150000  0.56070000  0.48320000  1.0
  O  O538  1  0.91470000  0.99770000  0.31450000  1.0
  O  O539  1  0.90210000  0.05030000  0.39730000  1.0
  O  O540  1  0.59980000  0.98420000  0.13960000  1.0
  O  O541  1  0.60490000  0.04260000  0.08060000  1.0
  O  O542  1  0.97990000  0.03020000  0.38250000  1.0
  O  O543  1  0.98850000  0.93930000  0.48320000  1.0
  O  O544  1  0.49770000  0.41470000  0.68550000  1.0
  O  O545  1  0.55030000  0.40210000  0.60270000  1.0
  O  O546  1  0.48420000  0.09980000  0.86040000  1.0
  O  O547  1  0.54260000  0.10490000  0.91940000  1.0
  O  O548  1  0.53020000  0.47990000  0.61750000  1.0
  O  O549  1  0.43930000  0.48850000  0.51680000  1.0
  O  O550  1  0.00230000  0.08530000  0.68550000  1.0
  O  O551  1  0.94970000  0.09790000  0.60270000  1.0
  O  O552  1  0.01580000  0.40020000  0.86040000  1.0
  O  O553  1  0.95740000  0.39510000  0.91940000  1.0
  O  O554  1  0.96980000  0.02010000  0.61750000  1.0
  O  O555  1  0.06070000  0.01150000  0.51680000  1.0
  O  O556  1  0.41470000  0.00230000  0.18550000  1.0
  O  O557  1  0.40210000  0.94970000  0.10270000  1.0
  O  O558  1  0.09980000  0.01580000  0.36040000  1.0
  O  O559  1  0.10490000  0.95740000  0.41940000  1.0
  O  O560  1  0.47990000  0.96980000  0.11750000  1.0
  O  O561  1  0.48850000  0.06070000  0.01680000  1.0
  O  O562  1  0.08530000  0.49770000  0.18550000  1.0
  O  O563  1  0.09790000  0.55030000  0.10270000  1.0
  O  O564  1  0.40020000  0.48420000  0.36040000  1.0
  O  O565  1  0.39510000  0.54260000  0.41940000  1.0
  O  O566  1  0.02010000  0.53020000  0.11750000  1.0
  O  O567  1  0.01150000  0.43930000  0.01680000  1.0
  O  O568  1  0.47670000  0.02330000  0.27190000  1.0
  O  O569  1  0.43810000  0.06190000  0.35500000  1.0
  O  O570  1  0.02330000  0.47670000  0.27190000  1.0
  O  O571  1  0.06190000  0.43810000  0.35500000  1.0
  O  O572  1  0.47670000  0.47670000  0.77190000  1.0
  O  O573  1  0.43810000  0.43810000  0.85500000  1.0
  O  O574  1  0.02330000  0.02330000  0.77190000  1.0
  O  O575  1  0.06190000  0.06190000  0.85500000  1.0
  O  O576  1  0.52330000  0.52330000  0.22810000  1.0
  O  O577  1  0.56190000  0.56190000  0.14500000  1.0
  O  O578  1  0.97670000  0.97670000  0.22810000  1.0
  O  O579  1  0.93810000  0.93810000  0.14500000  1.0
  O  O580  1  0.52330000  0.97670000  0.72810000  1.0
  O  O581  1  0.56190000  0.93810000  0.64500000  1.0
  O  O582  1  0.97670000  0.52330000  0.72810000  1.0
  O  O583  1  0.93810000  0.56190000  0.64500000  1.0
  F  F584  1  0.60380000  0.22480000  0.09200000  1.0
  F  F585  1  0.59770000  0.26480000  0.20200000  1.0
  F  F586  1  0.55670000  0.26610000  0.09200000  1.0
  F  F587  1  0.60480000  0.27360000  0.45940000  1.0
  F  F588  1  0.57740000  0.22220000  0.42930000  1.0
  F  F589  1  0.61200000  0.24800000  0.33530000  1.0
  F  F590  1  0.43410000  0.96990000  0.43080000  1.0
  F  F591  1  0.50050000  0.21890000  0.45680000  1.0
  F  F592  1  0.46770000  0.16750000  0.42910000  1.0
  F  F593  1  0.44980000  0.22180000  0.37240000  1.0
  F  F594  1  0.44530000  0.29460000  0.15800000  1.0
  F  F595  1  0.45190000  0.23890000  0.20100000  1.0
  F  F596  1  0.49100000  0.26300000  0.11600000  1.0
  F  F597  1  0.89620000  0.27520000  0.09200000  1.0
  F  F598  1  0.90230000  0.23520000  0.20200000  1.0
  F  F599  1  0.94330000  0.23390000  0.09200000  1.0
  F  F600  1  0.89520000  0.22640000  0.45940000  1.0
  F  F601  1  0.92260000  0.27780000  0.42930000  1.0
  F  F602  1  0.88800000  0.25200000  0.33530000  1.0
  F  F603  1  0.06590000  0.53010000  0.43080000  1.0
  F  F604  1  0.99950000  0.28110000  0.45680000  1.0
  F  F605  1  0.03230000  0.33250000  0.42910000  1.0
  F  F606  1  0.05020000  0.27820000  0.37240000  1.0
  F  F607  1  0.05470000  0.20540000  0.15800000  1.0
  F  F608  1  0.04810000  0.26110000  0.20100000  1.0
  F  F609  1  0.00900000  0.23700000  0.11600000  1.0
  F  F610  1  0.27520000  0.60380000  0.59200000  1.0
  F  F611  1  0.23520000  0.59770000  0.70200000  1.0
  F  F612  1  0.23390000  0.55670000  0.59200000  1.0
  F  F613  1  0.22640000  0.60480000  0.95940000  1.0
  F  F614  1  0.27780000  0.57740000  0.92930000  1.0
  F  F615  1  0.25200000  0.61200000  0.83530000  1.0
  F  F616  1  0.53010000  0.43410000  0.93080000  1.0
  F  F617  1  0.28110000  0.50050000  0.95680000  1.0
  F  F618  1  0.33250000  0.46770000  0.92910000  1.0
  F  F619  1  0.27820000  0.44980000  0.87240000  1.0
  F  F620  1  0.20540000  0.44530000  0.65800000  1.0
  F  F621  1  0.26110000  0.45190000  0.70100000  1.0
  F  F622  1  0.23700000  0.49100000  0.61600000  1.0
  F  F623  1  0.22480000  0.89620000  0.59200000  1.0
  F  F624  1  0.26480000  0.90230000  0.70200000  1.0
  F  F625  1  0.26610000  0.94330000  0.59200000  1.0
  F  F626  1  0.27360000  0.89520000  0.95940000  1.0
  F  F627  1  0.22220000  0.92260000  0.92930000  1.0
  F  F628  1  0.24800000  0.88800000  0.83530000  1.0
  F  F629  1  0.96990000  0.06590000  0.93080000  1.0
  F  F630  1  0.21890000  0.99950000  0.95680000  1.0
  F  F631  1  0.16750000  0.03230000  0.92910000  1.0
  F  F632  1  0.22180000  0.05020000  0.87240000  1.0
  F  F633  1  0.29460000  0.05470000  0.65800000  1.0
  F  F634  1  0.23890000  0.04810000  0.70100000  1.0
  F  F635  1  0.26300000  0.00900000  0.61600000  1.0
  F  F636  1  0.39620000  0.72480000  0.40800000  1.0
  F  F637  1  0.40230000  0.76480000  0.29800000  1.0
  F  F638  1  0.44330000  0.76610000  0.40800000  1.0
  F  F639  1  0.39520000  0.77360000  0.04060000  1.0
  F  F640  1  0.42260000  0.72220000  0.07070000  1.0
  F  F641  1  0.38800000  0.74800000  0.16470000  1.0
  F  F642  1  0.56590000  0.46990000  0.06920000  1.0
  F  F643  1  0.49950000  0.71890000  0.04320000  1.0
  F  F644  1  0.53230000  0.66750000  0.07090000  1.0
  F  F645  1  0.55020000  0.72180000  0.12760000  1.0
  F  F646  1  0.55470000  0.79460000  0.34200000  1.0
  F  F647  1  0.54810000  0.73890000  0.29900000  1.0
  F  F648  1  0.50900000  0.76300000  0.38400000  1.0
  F  F649  1  0.10380000  0.77520000  0.40800000  1.0
  F  F650  1  0.09770000  0.73520000  0.29800000  1.0
  F  F651  1  0.05670000  0.73390000  0.40800000  1.0
  F  F652  1  0.10480000  0.72640000  0.04060000  1.0
  F  F653  1  0.07740000  0.77780000  0.07070000  1.0
  F  F654  1  0.11200000  0.75200000  0.16470000  1.0
  F  F655  1  0.93410000  0.03010000  0.06920000  1.0
  F  F656  1  0.00050000  0.78110000  0.04320000  1.0
  F  F657  1  0.96770000  0.83250000  0.07090000  1.0
  F  F658  1  0.94980000  0.77820000  0.12760000  1.0
  F  F659  1  0.94530000  0.70540000  0.34200000  1.0
  F  F660  1  0.95190000  0.76110000  0.29900000  1.0
  F  F661  1  0.99100000  0.73700000  0.38400000  1.0
  F  F662  1  0.72480000  0.10380000  0.90800000  1.0
  F  F663  1  0.76480000  0.09770000  0.79800000  1.0
  F  F664  1  0.76610000  0.05670000  0.90800000  1.0
  F  F665  1  0.77360000  0.10480000  0.54060000  1.0
  F  F666  1  0.72220000  0.07740000  0.57070000  1.0
  F  F667  1  0.74800000  0.11200000  0.66470000  1.0
  F  F668  1  0.46990000  0.93410000  0.56920000  1.0
  F  F669  1  0.71890000  0.00050000  0.54320000  1.0
  F  F670  1  0.66750000  0.96770000  0.57090000  1.0
  F  F671  1  0.72180000  0.94980000  0.62760000  1.0
  F  F672  1  0.79460000  0.94530000  0.84200000  1.0
  F  F673  1  0.73890000  0.95190000  0.79900000  1.0
  F  F674  1  0.76300000  0.99100000  0.88400000  1.0
  F  F675  1  0.77520000  0.39620000  0.90800000  1.0
  F  F676  1  0.73520000  0.40230000  0.79800000  1.0
  F  F677  1  0.73390000  0.44330000  0.90800000  1.0
  F  F678  1  0.72640000  0.39520000  0.54060000  1.0
  F  F679  1  0.77780000  0.42260000  0.57070000  1.0
  F  F680  1  0.75200000  0.38800000  0.66470000  1.0
  F  F681  1  0.03010000  0.56590000  0.56920000  1.0
  F  F682  1  0.78110000  0.49950000  0.54320000  1.0
  F  F683  1  0.83250000  0.53230000  0.57090000  1.0
  F  F684  1  0.77820000  0.55020000  0.62760000  1.0
  F  F685  1  0.70540000  0.55470000  0.84200000  1.0
  F  F686  1  0.76110000  0.54810000  0.79900000  1.0
  F  F687  1  0.73700000  0.50900000  0.88400000  1.0
  F  F688  1  0.39620000  0.77520000  0.90800000  1.0
  F  F689  1  0.40230000  0.73520000  0.79800000  1.0
  F  F690  1  0.44330000  0.73390000  0.90800000  1.0
  F  F691  1  0.39520000  0.72640000  0.54060000  1.0
  F  F692  1  0.42260000  0.77780000  0.57070000  1.0
  F  F693  1  0.38800000  0.75200000  0.66470000  1.0
  F  F694  1  0.56590000  0.03010000  0.56920000  1.0
  F  F695  1  0.49950000  0.78110000  0.54320000  1.0
  F  F696  1  0.53230000  0.83250000  0.57090000  1.0
  F  F697  1  0.55020000  0.77820000  0.62760000  1.0
  F  F698  1  0.55470000  0.70540000  0.84200000  1.0
  F  F699  1  0.54810000  0.76110000  0.79900000  1.0
  F  F700  1  0.50900000  0.73700000  0.88400000  1.0
  F  F701  1  0.10380000  0.72480000  0.90800000  1.0
  F  F702  1  0.09770000  0.76480000  0.79800000  1.0
  F  F703  1  0.05670000  0.76610000  0.90800000  1.0
  F  F704  1  0.10480000  0.77360000  0.54060000  1.0
  F  F705  1  0.07740000  0.72220000  0.57070000  1.0
  F  F706  1  0.11200000  0.74800000  0.66470000  1.0
  F  F707  1  0.93410000  0.46990000  0.56920000  1.0
  F  F708  1  0.00050000  0.71890000  0.54320000  1.0
  F  F709  1  0.96770000  0.66750000  0.57090000  1.0
  F  F710  1  0.94980000  0.72180000  0.62760000  1.0
  F  F711  1  0.94530000  0.79460000  0.84200000  1.0
  F  F712  1  0.95190000  0.73890000  0.79900000  1.0
  F  F713  1  0.99100000  0.76300000  0.88400000  1.0
  F  F714  1  0.72480000  0.39620000  0.40800000  1.0
  F  F715  1  0.76480000  0.40230000  0.29800000  1.0
  F  F716  1  0.76610000  0.44330000  0.40800000  1.0
  F  F717  1  0.77360000  0.39520000  0.04060000  1.0
  F  F718  1  0.72220000  0.42260000  0.07070000  1.0
  F  F719  1  0.74800000  0.38800000  0.16470000  1.0
  F  F720  1  0.46990000  0.56590000  0.06920000  1.0
  F  F721  1  0.71890000  0.49950000  0.04320000  1.0
  F  F722  1  0.66750000  0.53230000  0.07090000  1.0
  F  F723  1  0.72180000  0.55020000  0.12760000  1.0
  F  F724  1  0.79460000  0.55470000  0.34200000  1.0
  F  F725  1  0.73890000  0.54810000  0.29900000  1.0
  F  F726  1  0.76300000  0.50900000  0.38400000  1.0
  F  F727  1  0.77520000  0.10380000  0.40800000  1.0
  F  F728  1  0.73520000  0.09770000  0.29800000  1.0
  F  F729  1  0.73390000  0.05670000  0.40800000  1.0
  F  F730  1  0.72640000  0.10480000  0.04060000  1.0
  F  F731  1  0.77780000  0.07740000  0.07070000  1.0
  F  F732  1  0.75200000  0.11200000  0.16470000  1.0
  F  F733  1  0.03010000  0.93410000  0.06920000  1.0
  F  F734  1  0.78110000  0.00050000  0.04320000  1.0
  F  F735  1  0.83250000  0.96770000  0.07090000  1.0
  F  F736  1  0.77820000  0.94980000  0.12760000  1.0
  F  F737  1  0.70540000  0.94530000  0.34200000  1.0
  F  F738  1  0.76110000  0.95190000  0.29900000  1.0
  F  F739  1  0.73700000  0.99100000  0.38400000  1.0
  F  F740  1  0.60380000  0.27520000  0.59200000  1.0
  F  F741  1  0.59770000  0.23520000  0.70200000  1.0
  F  F742  1  0.55670000  0.23390000  0.59200000  1.0
  F  F743  1  0.60480000  0.22640000  0.95940000  1.0
  F  F744  1  0.57740000  0.27780000  0.92930000  1.0
  F  F745  1  0.61200000  0.25200000  0.83530000  1.0
  F  F746  1  0.43410000  0.53010000  0.93080000  1.0
  F  F747  1  0.50050000  0.28110000  0.95680000  1.0
  F  F748  1  0.46770000  0.33250000  0.92910000  1.0
  F  F749  1  0.44980000  0.27820000  0.87240000  1.0
  F  F750  1  0.44530000  0.20540000  0.65800000  1.0
  F  F751  1  0.45190000  0.26110000  0.70100000  1.0
  F  F752  1  0.49100000  0.23700000  0.61600000  1.0
  F  F753  1  0.89620000  0.22480000  0.59200000  1.0
  F  F754  1  0.90230000  0.26480000  0.70200000  1.0
  F  F755  1  0.94330000  0.26610000  0.59200000  1.0
  F  F756  1  0.89520000  0.27360000  0.95940000  1.0
  F  F757  1  0.92260000  0.22220000  0.92930000  1.0
  F  F758  1  0.88800000  0.24800000  0.83530000  1.0
  F  F759  1  0.06590000  0.96990000  0.93080000  1.0
  F  F760  1  0.99950000  0.21890000  0.95680000  1.0
  F  F761  1  0.03230000  0.16750000  0.92910000  1.0
  F  F762  1  0.05020000  0.22180000  0.87240000  1.0
  F  F763  1  0.05470000  0.29460000  0.65800000  1.0
  F  F764  1  0.04810000  0.23890000  0.70100000  1.0
  F  F765  1  0.00900000  0.26300000  0.61600000  1.0
  F  F766  1  0.27520000  0.89620000  0.09200000  1.0
  F  F767  1  0.23520000  0.90230000  0.20200000  1.0
  F  F768  1  0.23390000  0.94330000  0.09200000  1.0
  F  F769  1  0.22640000  0.89520000  0.45940000  1.0
  F  F770  1  0.27780000  0.92260000  0.42930000  1.0
  F  F771  1  0.25200000  0.88800000  0.33530000  1.0
  F  F772  1  0.53010000  0.06590000  0.43080000  1.0
  F  F773  1  0.28110000  0.99950000  0.45680000  1.0
  F  F774  1  0.33250000  0.03230000  0.42910000  1.0
  F  F775  1  0.27820000  0.05020000  0.37240000  1.0
  F  F776  1  0.20540000  0.05470000  0.15800000  1.0
  F  F777  1  0.26110000  0.04810000  0.20100000  1.0
  F  F778  1  0.23700000  0.00900000  0.11600000  1.0
  F  F779  1  0.22480000  0.60380000  0.09200000  1.0
  F  F780  1  0.26480000  0.59770000  0.20200000  1.0
  F  F781  1  0.26610000  0.55670000  0.09200000  1.0
  F  F782  1  0.27360000  0.60480000  0.45940000  1.0
  F  F783  1  0.22220000  0.57740000  0.42930000  1.0
  F  F784  1  0.24800000  0.61200000  0.33530000  1.0
  F  F785  1  0.96990000  0.43410000  0.43080000  1.0
  F  F786  1  0.21890000  0.50050000  0.45680000  1.0
  F  F787  1  0.16750000  0.46770000  0.42910000  1.0
  F  F788  1  0.22180000  0.44980000  0.37240000  1.0
  F  F789  1  0.29460000  0.44530000  0.15800000  1.0
  F  F790  1  0.23890000  0.45190000  0.20100000  1.0
  F  F791  1  0.26300000  0.49100000  0.11600000  1.0
